9        
200  0 0 0 200.0 0 0 0 200.0 
C 0.5952421426773071 0.15521670877933502 -0.14213871955871582 
C -0.23007459938526154 1.1728414297103882 -0.05059748515486717 
H 2.0925698280334473 -0.9362064003944397 0.6944215893745422 
H 2.4925284385681152 0.5653806924819946 0.6547124981880188 
H 0.06542591750621796 2.302450180053711 0.006013087462633848 
N 2.076032876968384 -0.047658126801252365 -0.09825987368822098 
N -1.5396963357925415 0.5986152291297913 0.10419383645057678 
N -1.2958310842514038 -0.7737210392951965 0.018418682739138603 
O -0.19063353538513184 -1.0425782203674316 -0.046149808913469315 
