128
7.906793224 0.0 0.0 0.0 12.259055612 0.0 0.0 0.0 12.259055612
C 3.70906 3.81757 0.86775
C 0.35518 1.99785 6.92443
C 7.37609 8.05910 9.05421
C 3.70149 1.26099 4.21657
C 5.54083 0.36060 6.27294
C 0.86597 4.37894 1.24502
C 6.59257 9.96776 5.84741
C 7.46564 2.85725 7.79776
C 6.48945 0.76381 2.11878
C 2.16198 1.92602 9.27238
C 7.75206 3.62685 0.40977
C 6.25855 5.12912 9.54674
C 0.54089 2.33898 10.73669
C 6.15528 8.81810 11.89771
C 0.42779 1.57155 1.18840
C 5.41014 12.01481 5.17439
C 3.15421 1.24555 12.00523
C 7.58940 7.71026 2.40838
C 2.80357 12.09169 3.21565
C 5.71335 9.30607 8.73309
C 1.28189 10.58468 4.24227
C 4.88142 9.16999 5.81484
C 1.12067 10.45776 0.29019
C 1.80270 10.83778 5.39456
C 6.42718 0.04980 7.92764
C 4.62925 7.44990 5.26439
C 5.97377 7.45250 9.80162
C 6.80366 5.43391 1.84904
C 7.53135 3.15834 10.97460
C 4.68233 4.03744 4.20467
C 5.89776 11.56331 3.81248
C 2.28514 0.17272 4.48964
C 2.28937 7.45806 8.31295
C 5.34282 2.55589 12.06953
C 7.50664 6.96097 8.45474
C 2.08232 11.35219 9.49072
C 5.30311 7.47654 8.32063
C 1.81603 1.53150 8.09016
C 7.19464 0.52901 0.72885
C 3.63540 8.22402 11.84745
C 1.39215 5.79894 0.91504
C 1.86856 3.49061 4.91234
C 0.55499 4.34006 7.74431
C 0.92513 6.76032 5.35258
C 4.15787 12.03736 4.11513
C 1.42207 3.61083 2.39913
C 6.51685 3.12399 0.22224
C 7.41516 4.46540 10.54029
C 2.52259 7.78694 9.94373
C 4.61141 6.79371 3.72263
C 3.62945 11.63712 7.99098
C 2.11857 10.99774 6.77102
C 5.23229 6.43027 6.35857
C 5.04118 3.60441 8.31392
C 1.29558 2.24377 2.01319
C 0.74317 11.69284 0.53094
C 3.33539 3.45960 4.27437
C 1.72089 5.78458 6.17033
C 0.40789 5.58674 10.44323
C 4.70305 9.71893 2.62615
C 0.36327 12.08495 11.13316
C 1.04959 2.38181 5.03925
C 2.77447 5.87215 2.28198
C 3.02488 9.10783 2.70245
O 0.02477 4.29074 6.75572
O 6.64220 6.51062 10.12503
O 4.18571 5.67952 3.17746
O 0.27247 0.60303 6.32678
O 3.15470 4.09659 12.18251
O 6.95594 0.10166 11.06413
O 7.65443 11.77822 7.77664
O 1.71032 9.93134 6.93420
O 7.30003 4.64499 2.49684
O 5.54633 7.33710 2.97873
O 4.73785 2.46724 5.86553
O 5.00698 5.59839 8.95996
O 7.06127 7.59939 1.30782
O 6.12768 2.94025 8.84289
O 1.34485 9.33474 0.40800
O 4.85944 0.96745 1.84471
O 2.79302 2.43286 10.24963
O 2.71576 2.15270 0.62719
O 3.16573 2.06972 3.35285
O 2.14076 8.92703 4.23657
O 6.02849 5.46567 0.81333
O 5.49085 8.20067 0.37787
O 5.40339 1.77927 11.11558
O 2.06509 10.39515 10.09132
O 7.79303 7.32923 5.28534
O 3.89926 3.46979 8.83714
O 3.02813 0.61599 11.07582
O 5.42424 4.67563 4.80441
O 5.53573 10.16963 9.70401
O 5.59675 5.49389 6.71027
O 1.80051 8.24913 7.70140
O 7.76083 8.99743 6.01532
O 2.49806 1.91632 6.80725
O 2.91262 8.22376 1.51960
O 3.76690 9.50747 11.60571
O 6.40712 1.84477 6.28922
O 6.40945 11.92945 2.79178
O 4.43709 10.91512 7.92941
O 6.85915 9.61979 11.73969
O 0.01085 2.53686 4.54726
O 4.25711 9.77894 3.73761
O 4.74625 10.60256 1.89327
O 0.84424 12.19155 10.05053
O 4.01287 7.25936 8.05469
O 0.75256 1.21666 11.42665
O 3.82227 7.10334 11.24211
O 5.88290 0.46574 8.99157
O 1.12466 6.56389 12.25400
O 2.24781 5.61267 7.21588
O 1.47740 5.67858 10.06943
O 0.32328 8.09095 3.29451
O 0.12402 6.00139 7.99255
O 2.69612 5.94190 1.05521
O 1.37976 1.14296 2.68321
O 2.48431 11.07747 2.52873
O 6.70003 1.67692 2.72777
O 2.12538 7.20082 5.20590
O 5.36422 3.63036 3.07848
O 3.62086 0.62983 7.95636
O 1.71929 6.73523 2.74965
O 1.94511 8.59586 10.54403
O 4.04714 9.80329 6.42492
O 2.15646 4.83667 5.34245
O 6.16252 10.52796 7.11258
