128
7.906793224 0.0 0.0 0.0 12.259055612 0.0 0.0 0.0 12.259055612
C 5.78533 1.99492 3.83935
C 7.47261 8.88262 2.72696
C 4.25220 6.44078 1.95401
C 0.72783 4.81323 3.46733
C 6.91626 6.19643 10.99652
C 5.82160 0.71104 0.48034
C 6.61397 6.32189 6.01399
C 5.76584 10.57692 3.76993
C 3.04243 0.16182 8.77765
C 6.46679 9.42954 3.74179
C 5.74317 4.09746 7.58000
C 6.94439 6.59990 2.40338
C 3.62848 1.97735 7.83371
C 0.60458 12.18521 8.61730
C 3.11796 10.05075 4.44886
C 5.94035 11.02975 7.60072
C 7.87104 3.51759 6.11068
C 2.07612 7.10635 1.53608
C 6.77069 7.92875 1.81290
C 3.00139 5.84254 5.56939
C 2.80897 3.44590 9.73589
C 3.70368 12.05295 10.21253
C 2.41302 10.58464 7.25589
C 5.73993 7.17365 11.27395
C 7.58472 11.49305 5.27932
C 6.29765 5.44077 4.48758
C 1.16319 6.01989 7.57863
C 0.63955 4.01962 1.91437
C 0.57893 1.15879 3.93612
C 5.79331 4.00200 6.13015
C 4.18731 1.18274 7.08727
C 7.38114 12.15348 7.88145
C 0.37536 11.78641 4.16661
C 6.89582 1.36461 8.38915
C 7.42626 5.25811 3.45505
C 4.51026 1.20448 0.47796
C 3.51305 7.64647 2.04641
C 6.61598 2.82335 0.92241
C 3.45830 1.71557 0.14776
C 4.56540 6.81432 9.05841
C 3.18251 11.08113 11.33021
C 7.59585 5.80436 6.93990
C 5.33037 5.71425 2.36577
C 0.77516 8.25478 9.09053
C 4.06560 3.57195 3.70466
C 5.06104 5.62962 4.07741
C 4.57316 6.61969 5.30842
C 7.15832 8.67616 8.14601
C 2.25554 1.67197 1.13927
C 2.28615 5.00327 4.65719
C 0.73595 4.74729 10.85113
C 1.19528 3.19631 6.83843
C 3.69476 8.67575 3.97815
C 1.59135 4.02875 7.76594
C 0.86132 8.57698 10.45000
C 3.86704 8.07903 5.20768
C 1.85154 10.39478 1.12921
C 2.52267 10.61133 2.23144
C 2.77009 6.00215 0.94020
C 1.82647 9.20707 6.34101
C 7.89347 0.25721 11.37324
C 6.85863 3.91984 1.70693
C 6.65441 8.85659 10.04638
C 7.35323 7.50814 5.10752
O 4.93091 0.30433 6.35629
O 5.77860 11.79555 0.33808
O 2.45706 0.82148 2.05057
O 0.82813 1.78761 3.13206
O 3.41765 10.25264 8.02755
O 1.23317 11.80279 7.63936
O 3.20214 1.67101 9.04335
O 0.53414 11.76135 12.00123
O 5.57150 8.79492 10.79418
O 3.41043 7.96903 6.34691
O 1.24463 8.58381 11.56539
O 6.20101 8.48715 7.57939
O 5.67894 4.67299 1.85677
O 2.34527 3.80813 5.09719
O 6.61027 11.08844 2.90943
O 4.84493 12.20215 10.18323
O 0.12636 5.32147 8.28100
O 1.17398 2.16022 0.65493
O 5.82430 1.84310 8.83053
O 5.89136 4.90137 11.84684
O 5.29344 6.59094 6.48597
O 2.02279 2.49702 10.67983
O 3.05291 4.75120 0.06409
O 7.16943 1.12571 10.77357
O 0.80807 9.42365 5.92761
O 1.62300 3.44169 8.88183
O 3.30864 5.76835 6.87358
O 6.66822 2.78155 11.81635
O 7.35752 4.54058 10.13142
O 1.07134 12.03575 9.67175
O 7.63573 9.62021 10.30759
O 1.84593 7.97820 8.63534
O 0.92759 6.63659 1.39457
O 3.26934 11.19383 2.92961
O 5.59384 0.95272 3.98142
O 0.55037 7.20292 4.30859
O 2.19940 5.27419 3.45439
O 7.55055 7.22173 9.82999
O 5.63698 6.11400 8.78248
O 4.72847 10.97355 4.42973
O 0.74272 8.97751 2.90504
O 1.66951 5.35928 10.24085
O 0.74843 11.89856 2.91637
O 4.26961 1.91771 5.82867
O 1.19992 9.43336 1.16908
O 1.84077 3.97041 1.62649
O 7.80780 2.13124 5.35026
O 3.00201 9.92871 10.85359
O 6.87496 1.57117 1.34225
O 7.51944 12.06891 6.37613
O 3.70174 2.70400 2.86714
O 5.35821 10.36646 8.64385
O 6.18540 3.13072 4.17395
O 6.58158 8.18747 5.44129
O 2.06829 10.58920 4.74795
O 5.96258 4.10265 8.73820
O 3.39389 7.03766 9.57939
O 6.16714 8.48153 0.74649
O 0.85097 4.45824 12.01053
O 3.45537 9.08726 2.49698
O 1.50527 1.77989 6.55966
O 4.70391 6.51570 11.50960
O 0.17741 1.84533 8.01691
O 3.85525 4.08936 9.78350
