128
7.906793224 0.0 0.0 0.0 12.259055612 0.0 0.0 0.0 12.259055612
C 7.24283 3.02246 5.58789
C 0.64119 10.03796 8.43238
C 4.65524 5.69133 1.40368
C 1.78161 4.40725 5.32971
C 2.84974 1.80777 7.02321
C 5.65679 9.48817 4.43719
C 7.78050 5.80063 4.87058
C 0.90701 1.29854 8.78047
C 1.71239 1.70856 5.22803
C 0.92791 7.57372 2.51490
C 5.78756 11.18851 8.64882
C 7.03700 3.39926 9.51341
C 3.95497 9.04704 10.14043
C 3.69979 9.22908 11.44233
C 7.02426 8.41627 0.01117
C 4.38345 7.90386 12.05788
C 0.92574 3.69253 7.36032
C 5.29685 6.30116 10.42362
C 1.80063 7.48620 9.98432
C 7.05210 2.12059 6.71259
C 2.23870 11.21240 10.79123
C 6.77781 4.57132 2.77647
C 6.65866 0.68852 2.72170
C 5.83488 8.48341 2.27061
C 5.95052 1.18155 1.54846
C 7.90562 11.51249 4.98490
C 1.89844 7.32000 5.68288
C 0.84947 4.83205 11.23527
C 2.46795 4.27738 3.99441
C 0.19205 4.55603 5.69333
C 5.02538 4.26375 2.99344
C 6.27312 10.97615 6.93795
C 3.40384 8.23505 5.76769
C 2.58856 1.31290 8.89901
C 2.79267 0.65289 11.36956
C 6.47651 2.52188 0.70073
C 2.04457 8.53832 2.66337
C 6.53149 2.93349 4.59303
C 2.48114 4.54467 9.37136
C 7.22071 7.70235 8.13382
C 2.78678 1.98794 2.84618
C 4.08346 6.69117 5.47974
C 7.46691 5.92896 12.16042
C 6.32527 6.71435 7.10278
C 0.67478 10.07958 4.85918
C 0.34616 1.35111 9.93497
C 7.53621 5.29162 1.25176
C 7.03257 0.02893 6.40034
C 0.67454 2.43126 5.22064
C 5.61784 4.12266 4.18139
C 3.99960 6.32576 8.29337
C 1.64043 2.60514 7.43168
C 4.53236 11.74147 4.68291
C 2.95541 11.75979 6.49287
C 7.52354 11.08114 11.49482
C 0.52042 6.49309 1.49994
C 1.12787 1.89410 1.63054
C 5.00330 1.99524 10.12474
C 2.06123 4.40678 10.66438
C 4.25960 6.57931 6.85884
C 1.92973 11.23937 4.02811
C 3.45992 2.25888 8.06407
C 3.40530 3.69701 11.35208
C 4.12165 7.02689 3.94545
O 6.02738 5.19247 4.87392
O 4.78292 9.84723 5.29843
O 0.74813 1.96709 2.67276
O 2.43860 4.98374 3.15803
O 6.78899 8.82935 8.89085
O 2.31723 11.52644 9.62672
O 0.38105 9.77170 7.35532
O 1.26953 10.37905 2.91251
O 6.00926 0.05835 0.98861
O 4.41563 6.26296 3.16592
O 6.73952 10.75711 10.72493
O 6.34688 9.80468 3.47928
O 2.52805 2.72616 2.02547
O 7.69464 9.20368 5.17285
O 7.88806 11.38670 0.44314
O 4.58533 3.60794 11.08332
O 6.94339 7.40304 6.04617
O 5.14856 1.64029 8.66639
O 1.00818 1.05076 0.70078
O 3.64729 5.12825 8.62246
O 7.38915 6.75787 4.40026
O 2.86802 10.08063 11.84037
O 3.60439 0.33257 0.30993
O 1.40119 8.61473 10.14956
O 4.93517 1.22350 10.96661
O 3.03189 4.39510 6.13888
O 6.27539 5.68137 2.13087
O 6.47983 1.47893 3.84962
O 2.65509 0.91501 6.17757
O 5.22266 11.67063 3.86049
O 5.58160 10.18865 7.23211
O 3.26152 8.94720 6.66371
O 1.65254 4.81968 8.41443
O 6.80523 3.80819 0.94635
O 4.14157 4.70433 0.94773
O 3.58511 3.29714 4.28522
O 1.26759 6.59494 6.31557
O 3.91272 6.90835 0.79033
O 0.50217 7.49773 8.25244
O 0.88089 8.12421 3.71424
O 3.05606 11.86016 3.84573
O 5.75137 7.24984 9.54195
O 2.00215 9.92601 5.12549
O 4.66023 11.14389 9.21088
O 3.17275 8.88172 3.32449
O 7.78199 4.79789 10.62152
O 7.51990 0.61689 10.66280
O 5.34940 9.03936 1.31152
O 0.36465 4.76935 4.14006
O 0.14363 1.04978 6.38891
O 3.83207 3.24824 8.29822
O 3.75111 8.66273 9.19734
O 7.37146 6.82787 11.38241
O 1.41749 6.47571 0.35517
O 7.58393 12.22387 2.93799
O 2.49502 1.81508 12.00669
O 6.18894 3.86092 8.86451
O 2.36689 6.63872 10.02417
O 6.44641 5.64256 7.58674
O 7.80576 8.76313 0.83539
O 1.12648 0.00272 4.66054
O 5.20960 5.61830 11.32490
O 7.24012 2.78459 10.42222
O 4.53677 3.19509 2.31315
