128
7.906793224 0.0 0.0 0.0 12.259055612 0.0 0.0 0.0 12.259055612
C 3.35310 9.00024 5.32016
C 2.08731 11.82957 2.42053
C 4.95502 4.69716 6.63913
C 1.80395 10.67871 5.38065
C 0.45805 9.73501 0.17986
C 5.79720 5.46155 3.60827
C 0.75651 1.41517 1.94159
C 6.90501 3.78421 7.19890
C 5.71449 11.76439 11.74484
C 5.85448 8.72460 9.72680
C 7.51206 4.91141 0.41388
C 6.68792 0.88846 6.63657
C 7.08071 10.03290 5.81981
C 4.59806 8.68640 10.19582
C 1.46865 11.00945 7.93423
C 3.11351 3.05608 2.10720
C 5.80353 12.07753 5.36662
C 4.13413 9.48805 9.32184
C 2.88395 2.99850 9.50309
C 1.40880 7.82235 10.79335
C 6.95811 4.76583 3.77649
C 6.21126 2.19857 3.70351
C 0.74679 5.97627 0.04397
C 4.34710 4.98217 11.24236
C 0.60588 2.58258 5.61392
C 1.08712 7.72697 6.19901
C 3.97147 12.25230 9.70047
C 2.48624 2.68959 3.79965
C 5.18017 0.65710 0.48634
C 4.61199 8.06624 2.29827
C 1.97713 2.28477 2.33755
C 0.17862 3.78048 9.66197
C 5.50124 0.48547 10.71726
C 3.75602 8.09879 11.16964
C 5.29501 11.98902 6.87862
C 2.12906 7.79024 9.52067
C 7.81677 8.24971 3.85412
C 2.36651 8.97284 4.08972
C 7.46464 0.99853 8.13061
C 2.17634 5.63049 0.51947
C 7.59633 10.08434 2.83011
C 5.26051 9.67656 8.46595
C 6.91037 5.98189 8.77991
C 0.40488 7.24193 0.77998
C 3.90903 5.06415 8.17503
C 1.89543 9.36537 0.30301
C 7.79749 2.27724 0.30319
C 2.99515 10.69778 1.20577
C 3.50850 1.42759 4.96137
C 6.30656 10.26128 3.57160
C 0.41371 10.39351 11.33370
C 6.57906 3.92683 9.33468
C 2.51954 3.79673 4.58330
C 3.69645 3.90237 8.74570
C 3.69680 0.48746 0.50918
C 2.10225 9.09063 11.15459
C 0.36072 4.22829 6.60735
C 6.36574 5.56332 0.09895
C 2.63345 6.44197 9.39090
C 1.18352 8.18058 3.49646
C 7.60353 1.69892 2.64326
C 2.68057 3.94184 10.63046
C 6.10657 11.14837 4.34940
C 5.44746 0.84488 4.56502
O 5.34474 0.75764 7.18698
O 2.49824 4.81578 5.21548
O 5.54200 8.33649 3.03612
O 6.06684 11.64964 2.75337
O 5.12874 1.17552 3.38938
O 1.23066 9.16961 6.03679
O 6.86828 10.12221 6.97298
O 4.12948 10.14799 1.13484
O 0.31632 1.19358 9.02138
O 5.31139 5.45559 7.63727
O 4.69936 5.41792 5.62094
O 2.35985 9.00567 8.84672
O 6.25284 3.42415 4.28730
O 6.31164 0.73254 1.19983
O 5.55062 3.57266 9.44142
O 2.01594 5.42173 9.91692
O 4.17037 11.02630 10.27073
O 4.70923 5.61163 3.43662
O 4.48992 5.57604 10.13721
O 2.99973 6.04311 8.16626
O 2.22656 3.39415 11.55143
O 0.28608 7.74716 10.72117
O 1.92047 10.42106 10.98330
O 2.36205 11.40135 7.27279
O 5.62985 1.68268 11.65233
O 2.42601 5.24280 1.70370
O 5.14231 11.45296 8.14929
O 2.64901 1.61158 7.42959
O 4.25296 6.87751 2.19758
O 6.33594 6.40206 11.48936
O 5.22593 9.16986 7.31915
O 2.67256 10.02973 3.46050
O 0.64026 11.32680 2.67107
O 7.21113 1.02044 3.95098
O 7.32656 3.40617 0.08231
O 2.91689 0.42311 5.03005
O 4.19158 3.51884 2.08061
O 3.44427 2.58622 7.15107
O 3.09606 0.71562 9.80279
O 2.99504 5.57429 11.72098
O 0.06184 2.77657 10.25322
O 0.84402 10.68910 8.93953
O 3.01776 0.26020 11.82246
O 7.25489 7.95020 0.62586
O 7.25013 2.21698 6.89199
O 0.96821 7.06325 7.12113
O 1.34201 4.48285 7.14949
O 6.89079 10.19653 1.50818
O 6.11135 6.63809 9.40635
O 0.03862 4.70834 4.59684
O 5.86753 3.63507 6.27811
O 6.34201 0.31925 9.73821
O 7.58042 11.14951 10.70945
O 1.74142 8.21925 0.93989
O 7.51612 4.25100 2.40569
O 1.23696 1.68607 5.64976
O 6.83069 8.02653 4.69898
O 3.04407 12.15657 2.94093
O 1.81112 3.50887 9.02557
O 0.40474 11.38939 5.78999
O 4.27156 7.73791 12.24507
O 0.31141 1.22078 11.86075
O 3.83655 10.19292 5.21909
O 3.56412 7.71739 5.59581
