128
7.906793224 0.0 0.0 0.0 12.259055612 0.0 0.0 0.0 12.259055612
C 3.07708 10.75282 6.46801
C 7.14822 0.07394 4.43277
C 7.37840 9.87133 5.24672
C 2.93616 3.82368 7.60955
C 6.01496 11.46447 7.00193
C 5.59179 2.51706 7.34501
C 7.89161 0.25854 0.17489
C 0.93008 1.94799 7.84818
C 5.74668 11.01049 0.72207
C 6.77835 9.29566 11.26509
C 6.54441 6.73906 2.48061
C 6.00603 9.97572 12.02098
C 6.25357 2.94470 11.60129
C 4.43194 6.44656 11.30628
C 2.46715 0.35154 5.65802
C 5.46325 3.49990 1.64942
C 4.87102 10.47618 7.32727
C 4.23459 8.15530 8.81777
C 6.88048 9.20483 7.93794
C 4.55068 8.12438 11.95593
C 5.92530 5.20285 3.94877
C 4.52789 3.16406 11.55840
C 5.16954 8.36827 1.42782
C 2.39621 11.21755 9.67368
C 1.97341 8.56516 6.20530
C 0.64510 8.51814 5.94011
C 0.04212 10.16693 9.09648
C 2.90488 5.04423 3.90062
C 5.89769 0.99572 9.74982
C 3.40033 10.30418 1.59881
C 3.54610 6.08205 4.23605
C 6.90805 4.93536 8.86436
C 1.21580 10.76867 11.49159
C 6.82749 10.32723 2.03037
C 7.58025 0.86464 6.37607
C 0.02030 6.12954 4.97500
C 1.16872 7.14367 7.37876
C 0.83757 3.50285 2.03577
C 1.41834 10.45808 8.51708
C 5.52552 2.94229 10.61185
C 4.69502 0.29481 0.18919
C 5.86387 9.68596 7.09424
C 6.32090 5.51620 7.36596
C 6.22191 3.61245 0.48034
C 2.36545 7.04308 7.95670
C 3.81854 1.39513 0.23384
C 7.68762 2.63358 11.23110
C 7.86817 8.12376 0.95291
C 4.50463 10.73119 8.97662
C 4.07839 1.60054 3.89402
C 1.30343 1.61677 10.24867
C 2.46021 7.04102 9.31871
C 3.42229 8.06781 2.46802
C 5.64055 9.36164 2.57614
C 0.31578 2.48511 4.18904
C 6.17777 7.36228 1.33231
C 0.42063 5.47894 10.89080
C 3.25436 4.00630 11.88370
C 0.96708 7.27500 5.94474
C 6.86568 0.79598 3.31780
C 7.23671 11.73346 5.97633
C 0.58784 0.85275 11.27866
C 2.92442 1.96533 0.94622
C 5.14353 10.57585 4.20140
O 7.26660 8.34947 10.88219
O 0.29527 2.80092 10.27505
O 0.83142 7.23809 1.21638
O 5.68437 0.23584 8.04979
O 0.07762 2.67321 2.15819
O 7.49546 7.70910 8.34336
O 3.84703 0.57175 3.36607
O 7.47100 11.19244 4.08326
O 7.12749 1.97884 6.37526
O 4.92505 7.95523 5.06899
O 2.11378 4.43954 3.52212
O 3.45185 7.30037 7.22039
O 5.11035 11.78304 4.58214
O 2.50783 1.71883 9.60725
O 6.67952 5.68818 3.07298
O 6.29684 6.56184 7.27750
O 1.88995 10.15955 10.36612
O 5.45923 3.58700 7.32344
O 2.65658 3.59057 8.93972
O 0.69921 5.30008 5.60064
O 4.56170 0.94273 10.05755
O 1.31879 7.15337 10.02469
O 4.94820 10.44468 9.94737
O 3.61174 8.95978 8.40044
O 0.54239 0.64781 1.17675
O 5.89045 4.05482 2.82249
O 1.37089 10.48685 7.20569
O 6.81965 0.90425 9.23145
O 2.48919 8.50651 2.96181
O 3.81286 7.03788 1.97114
O 7.52901 11.16998 9.98641
O 1.33001 4.64159 1.97035
O 3.36434 8.66668 11.80118
O 2.74484 3.99927 6.49242
O 0.16637 4.79833 8.85812
O 5.35693 7.56445 8.83106
O 2.20810 2.17189 1.82740
O 1.73250 11.98937 11.74328
O 1.83255 11.98173 8.75305
O 3.10006 4.45258 0.56480
O 5.98609 3.39075 9.54780
O 3.09164 10.39106 5.44379
O 6.10881 0.41637 11.44269
O 4.55338 5.72178 10.61370
O 4.65310 1.77481 7.48501
O 7.03522 5.56144 10.94364
O 1.36554 5.16147 11.92892
O 2.22152 10.28889 1.91723
O 6.06609 8.19284 4.52220
O 7.48415 2.99595 4.91624
O 1.04906 2.01160 6.78118
O 1.47137 2.08783 4.15488
O 4.91746 11.89912 1.21900
O 6.99063 4.42582 0.48481
O 6.29570 4.95792 5.01117
O 4.06416 5.92115 5.50542
O 4.40010 3.14893 1.77361
O 1.60842 12.13383 4.89184
O 3.43659 1.16343 5.86528
O 5.16068 1.94933 4.36470
O 7.82537 9.77662 1.64132
O 6.17110 1.38341 2.46608
O 0.40857 9.40038 4.79146
O 4.32895 9.75427 2.91420
