128
7.906793224 0.0 0.0 0.0 12.259055612 0.0 0.0 0.0 12.259055612
C 0.44012 1.76433 5.84079
C 7.15467 1.69205 8.90401
C 3.17030 4.77689 1.54341
C 6.89128 11.95309 6.95980
C 0.82203 1.09296 4.14448
C 7.29463 5.47024 2.07144
C 4.21877 7.04690 6.05045
C 0.28720 1.13098 11.88477
C 7.65009 2.63114 1.64819
C 4.78856 0.81541 1.82542
C 6.04402 2.48939 7.30811
C 3.67523 6.26236 3.69520
C 6.25501 2.31693 8.86581
C 6.30942 8.53630 11.81685
C 1.27552 2.17797 11.20994
C 5.03932 11.34223 3.49173
C 1.81102 9.26647 10.95554
C 0.14382 8.21569 7.76123
C 5.59912 12.25861 9.81620
C 4.23675 10.37281 11.51210
C 6.95447 11.57847 8.73798
C 5.77328 7.82277 4.18340
C 5.07026 10.58910 2.20792
C 1.18191 0.04855 10.53414
C 0.16997 11.28614 3.08593
C 4.33235 8.90101 7.06033
C 3.58616 8.00908 10.41286
C 5.17707 2.68673 9.50480
C 7.24573 3.96102 7.57226
C 7.28506 6.51708 1.23016
C 3.35309 10.89870 3.85996
C 4.58577 2.36628 7.23946
C 2.98125 11.82888 8.16968
C 3.81478 4.03458 11.20581
C 3.12184 4.13281 0.40165
C 4.34495 0.72372 9.90575
C 2.34890 7.53605 11.77667
C 6.10337 1.93903 5.12407
C 7.80747 6.21674 6.09992
C 5.72687 6.13148 10.22350
C 3.33699 8.86653 2.82901
C 2.94299 2.25030 2.23614
C 7.62606 5.26539 11.81370
C 4.48236 7.15524 4.69223
C 1.72693 8.88124 4.63136
C 4.93070 4.59799 7.24886
C 1.12783 4.79212 0.14133
C 3.97474 3.81918 7.81062
C 0.36315 3.16407 6.44023
C 4.91633 4.07155 4.96870
C 6.95508 8.50324 9.56487
C 7.03706 5.68753 7.04498
C 6.47273 9.10871 5.48191
C 0.94775 0.91457 1.04515
C 0.08243 7.33973 1.51670
C 3.38754 1.67058 1.15077
C 0.36817 1.72817 2.30351
C 1.54415 3.90291 5.89643
C 5.67304 5.62914 7.81877
C 2.33535 3.50994 2.14559
C 1.44178 11.62085 1.97789
C 2.94012 1.08624 3.16584
C 1.82136 3.72989 0.03299
C 4.30820 6.27905 1.68465
O 6.24705 1.49938 3.95622
O 2.44975 6.44608 3.63809
O 3.83272 4.27416 4.16129
O 3.39981 1.10071 4.39594
O 7.83675 5.12281 10.49705
O 7.05414 0.41400 11.29491
O 0.67522 1.73379 7.05624
O 4.18743 1.99066 9.55486
O 0.71913 0.02591 4.15560
O 6.48000 7.61828 3.33157
O 5.72185 0.08793 6.97100
O 3.11099 7.90338 9.27610
O 7.54930 9.91326 2.40624
O 4.46762 8.52774 3.83114
O 5.50540 9.39821 1.92476
O 5.07263 3.43619 10.97361
O 1.17040 8.52131 10.40413
O 0.14629 11.01301 9.01813
O 6.95619 11.77217 3.16092
O 7.83136 11.70230 6.33415
O 6.97827 4.59615 3.05466
O 6.49082 9.82864 12.12984
O 3.39111 5.07863 10.74489
O 2.91390 0.24926 10.37469
O 3.01707 4.55007 8.23479
O 7.40217 4.11651 8.72525
O 0.78499 8.16742 0.91899
O 4.89166 2.97629 5.41292
O 3.06451 8.96115 6.59654
O 6.22700 10.11781 6.31515
O 7.02703 4.07633 4.57679
O 2.35985 0.55100 7.52776
O 0.47519 6.11531 4.90062
O 5.21299 6.65381 1.17474
O 4.98233 6.34272 11.08419
O 5.63167 1.82266 1.82815
O 1.18085 9.90444 4.81837
O 7.44626 7.69826 9.98592
O 3.39047 7.09718 12.05402
O 1.21555 3.89622 2.46491
O 3.18444 0.70181 0.20862
O 4.36034 8.98590 10.27463
O 2.34698 10.88458 1.81619
O 4.72500 11.28524 10.76903
O 1.94123 5.78434 1.33393
O 5.86315 5.39905 9.15031
O 3.82746 9.94336 0.16536
O 3.07920 8.16886 1.58820
O 4.80202 7.38453 7.19654
O 0.16090 1.64309 9.52723
O 4.47441 10.76904 4.67986
O 4.37357 9.60295 8.29693
O 1.05964 6.89550 11.77747
O 6.99572 3.57180 1.22466
O 4.73978 0.17779 2.87866
O 4.66101 11.19472 1.37841
O 2.46767 3.58510 5.21496
O 1.51178 2.97922 10.38756
O 1.52830 10.43915 11.50490
O 7.69656 8.49465 5.79753
O 2.46822 10.81243 8.56234
O 1.34543 8.60261 7.70076
O 5.36443 5.05397 5.91286
O 3.73438 5.95772 6.30351
