128
7.906793224 0.0 0.0 0.0 12.259055612 0.0 0.0 0.0 12.259055612
C 2.65488 9.89808 9.89140
C 6.74693 11.73966 1.26279
C 0.00085 3.35779 8.46853
C 7.65052 11.98361 4.18027
C 6.14489 11.04387 2.07116
C 6.37492 4.18354 2.63810
C 7.13029 0.74810 2.64474
C 3.76467 8.31864 9.96978
C 3.49496 11.89683 1.90037
C 6.69019 0.97235 7.61981
C 6.62123 5.13516 11.68142
C 1.09898 5.35614 9.47718
C 0.11720 0.53005 6.44019
C 7.50340 9.71469 7.23072
C 2.44726 0.92979 8.49707
C 4.12669 6.41095 7.80429
C 4.73446 1.31884 0.99514
C 4.98941 10.73135 11.32416
C 6.61054 6.31659 9.48955
C 0.07291 9.10299 1.67194
C 3.25033 10.38074 1.42366
C 5.05963 4.47847 10.09529
C 5.99831 9.09973 1.78642
C 6.36488 6.40611 10.88324
C 5.54448 1.41420 8.47943
C 1.99720 3.03444 3.97341
C 0.35196 8.64325 7.00911
C 0.00848 1.80171 2.35143
C 5.80576 10.09423 4.88867
C 6.90843 5.50591 0.67969
C 1.80215 3.56954 11.55880
C 7.80334 3.91212 11.38542
C 5.02877 1.93489 9.58567
C 5.60307 8.55824 0.34691
C 5.53764 7.01275 3.85249
C 4.06322 6.55756 0.95412
C 3.65916 9.26342 2.67525
C 6.73985 9.06879 11.11560
C 1.02668 9.78449 9.86611
C 3.69145 4.99193 1.03878
C 5.25946 9.54792 6.20152
C 5.78839 9.77635 11.66042
C 4.32259 12.12948 0.57177
C 1.42773 6.79632 2.87667
C 1.36637 6.61629 6.56377
C 4.64454 11.20754 4.51687
C 0.62228 9.22296 11.45231
C 1.03362 7.92194 11.88262
C 4.77761 2.00914 4.87905
C 4.66110 6.00981 3.67182
C 7.02941 7.60746 5.66051
C 2.12352 3.29350 6.94526
C 6.06456 0.69027 0.58594
C 7.74391 5.11239 9.10480
C 5.09857 11.87173 10.37479
C 1.56013 9.53116 0.11503
C 2.14055 12.25904 2.16880
C 6.30284 7.36806 12.03849
C 6.80955 7.87294 8.78239
C 5.89023 8.19154 6.41650
C 5.15853 4.68898 5.48482
C 1.56335 0.56558 11.77331
C 3.43303 11.90178 7.76912
C 4.00035 11.98651 5.28848
O 1.69278 1.02924 9.33333
O 6.72549 9.56190 4.15890
O 4.63348 0.65238 6.51725
O 6.45001 4.67892 5.88811
O 7.88373 2.64625 3.43664
O 3.01201 3.40855 3.41693
O 0.67762 12.25211 7.32195
O 3.35363 7.34863 1.33813
O 4.07496 1.43753 3.94945
O 7.14832 3.03914 11.29395
O 3.61254 5.89400 3.82980
O 7.15389 8.87438 9.51013
O 4.03676 4.37982 10.97698
O 4.11719 2.55542 0.89316
O 0.36746 0.95167 5.24209
O 4.85452 8.95774 10.13985
O 0.72290 10.84857 9.40339
O 6.73981 3.42170 1.88998
O 5.42987 6.20585 9.74453
O 3.02437 6.15082 8.10976
O 2.53455 1.38560 12.01984
O 7.78698 4.93453 1.18198
O 3.36965 7.27527 10.59764
O 6.31442 0.04072 10.00881
O 2.15394 5.21787 9.90156
O 5.13342 11.65491 2.77621
O 4.45836 1.98577 10.64975
O 4.38384 3.80631 5.21791
O 6.32198 6.39240 1.59080
O 2.68334 11.17768 7.06530
O 2.18100 6.65377 5.76659
O 0.95535 5.81567 3.22545
O 5.88145 3.61637 9.87795
O 2.76981 12.05924 4.91619
O 0.72796 7.08489 11.11171
O 0.70897 11.17343 4.39749
O 4.40570 5.62209 6.56739
O 5.67374 2.36572 4.28677
O 4.51796 11.62774 8.38621
O 4.98701 4.71132 0.83266
O 0.68660 1.80103 1.05997
O 1.48714 8.31575 7.42584
O 3.17637 10.75887 9.88363
O 7.32702 6.58980 5.50155
O 4.61035 2.21669 7.87872
O 2.54943 0.84040 3.09251
O 0.48255 6.47479 7.33984
O 4.82383 8.55273 2.27170
O 7.60644 10.90501 6.84250
O 6.50598 4.85235 3.56536
O 0.69157 2.97745 9.52519
O 2.28309 3.49973 0.39942
O 5.79485 8.08433 7.86977
O 3.93732 9.20345 6.63258
O 1.75875 4.04871 7.75728
O 2.21802 2.40737 6.24470
O 3.18377 8.62897 3.47082
O 3.41940 9.75501 0.38514
O 7.11256 2.61550 7.74732
O 1.50116 11.18343 1.69713
O 0.68423 9.15838 2.72979
O 2.59370 4.97037 1.86281
O 6.57211 7.49751 3.66619
O 4.12291 7.64055 6.64104
