8
3.570  0.000  0.000   0.000  3.570  0.000   0.000  0.000  3.570
C     0.0000000000E+00   0.0000000000E+00   0.0000000000E+00
C     8.9250000000E-01   8.9250000000E-01   8.9250000000E-01
C     1.7850000000E+00   1.7850000000E+00   0.0000000000E+00
C     2.6775000000E+00   2.6775000000E+00   8.9250000000E-01
C     1.7850000000E+00   0.0000000000E+00   1.7850000000E+00
C     0.0000000000E+00   1.7850000000E+00   1.7850000000E+00
C     8.9250000000E-01   2.6775000000E+00   2.6775000000E+00
C     2.6775000000E+00   8.9250000000E-01   2.6775000000E+00
