512
16.500000000 0.0 0.0 0.0  16.500000000  0.0 0.0 0.0 16.500000000
H 7.63040 0.03798 11.70283
H 13.87976 3.45347 14.64083
H 5.91607 11.20172 10.66632
H 3.95813 15.54906 8.07266
H 9.36111 12.18758 1.27820
H 8.24131 4.60168 3.71214
H 1.93664 9.35091 4.07326
H 14.00659 8.29704 13.24650
H 4.99914 15.39761 16.21440
H 2.90406 0.24431 8.04617
H 6.51600 3.93692 6.02264
H 12.32907 15.29157 1.11208
H 7.46426 3.05507 4.85837
H 2.04748 10.81582 15.12433
H 1.46257 14.62112 9.63089
H 6.32340 9.91563 14.15863
H 2.94540 15.62666 0.75747
H 7.30493 5.53176 1.48469
H 12.79085 14.98228 14.63698
H 4.42213 6.69261 2.94001
H 5.72304 11.73669 12.14085
H 16.45950 7.74600 10.96132
H 6.10342 5.46709 0.13387
H 5.80178 12.47029 8.06594
H 2.69557 11.37508 1.31230
H 12.58308 14.56641 2.69135
H 10.89852 9.01838 3.13100
H 1.08685 8.72774 5.50475
H 2.08899 15.24734 14.07959
H 4.88937 16.25321 9.61462
H 16.14419 16.32157 1.76660
H 3.44972 1.59347 6.31531
H 12.20814 3.93838 13.39228
H 7.00848 7.68156 3.71875
H 1.04143 8.80163 11.16288
H 1.19899 15.94728 10.82752
H 6.67172 3.14216 15.17019
H 6.23255 1.96212 0.14433
H 1.91202 6.84240 12.25349
H 12.01831 11.78498 10.60749
H 2.45004 15.38139 7.88795
H 7.87048 3.53248 15.73573
H 9.02313 10.47632 16.44302
H 1.22314 8.40450 12.82017
H 0.39023 15.05953 2.52924
H 7.67714 15.90057 10.24335
H 9.30301 7.67472 4.51523
H 4.63461 2.18282 0.27810
H 14.55667 4.55436 6.33393
H 0.95003 10.19331 4.81416
H 6.82671 15.95897 15.23870
H 2.55579 15.86809 15.23699
H 7.67073 7.98243 2.37165
H 3.00038 14.78057 13.07557
H 11.48480 13.83021 14.54016
H 6.11116 10.12173 8.21577
H 3.96863 1.23077 8.83052
H 8.90226 11.04710 14.72913
H 15.41643 6.91459 1.46273
H 15.01290 1.53715 6.54340
H 5.32927 1.83861 1.54607
H 7.67901 10.32157 13.45588
H 4.40164 1.14294 10.39039
H 4.00956 15.93662 14.85489
H 1.91045 10.32983 0.08991
H 2.58311 9.61990 14.49826
H 1.30961 9.07011 2.54235
H 1.27192 9.33797 15.35230
H 6.56389 0.71660 10.40545
H 13.20784 13.21733 14.85576
H 15.40846 10.63456 13.90679
H 12.58590 7.42451 14.62032
H 1.74534 14.83809 16.43772
H 2.62080 16.20476 12.84359
H 10.39427 10.99371 9.60750
H 16.22610 7.52326 0.54539
H 7.34826 9.88318 9.50507
H 9.83730 7.29754 3.14605
H 12.52090 5.39634 14.91946
H 6.08549 2.21634 5.61205
H 12.31741 3.60517 15.39586
H 2.19938 12.13308 16.33991
H 3.05096 7.10865 3.72967
H 14.16427 6.57938 13.81178
H 3.58911 2.51426 7.79274
H 8.63606 4.76487 15.74181
H 3.14138 14.42293 16.06648
H 0.10578 8.84306 3.46082
H 7.49843 8.88598 13.51373
H 1.52474 7.74264 9.93229
H 6.26899 1.23591 15.33660
H 8.07304 8.89442 3.52805
H 2.74630 8.27457 12.50035
H 4.46373 11.10808 11.73594
H 12.19424 7.41308 15.89910
H 5.61016 9.68015 9.93893
H 7.41771 2.20179 6.56379
H 14.59059 9.45583 3.17874
H 0.88182 15.46076 1.08397
H 4.25025 3.21530 6.32676
H 2.90579 10.65226 5.55900
H 5.77499 4.49196 15.20637
H 5.39983 3.13216 15.88443
H 10.00118 6.10900 14.53370
H 15.87006 2.93039 7.99875
H 13.07356 0.04992 11.50202
H 15.28428 7.91182 3.97147
H 14.16540 3.23358 7.73853
H 15.98426 8.59322 14.86728
H 9.30719 3.22420 3.79308
H 0.45228 6.31125 12.50114
H 3.35093 16.41067 6.70820
H 8.47095 13.17834 0.31037
H 10.15720 5.41730 9.52615
H 12.92948 13.85296 1.49041
H 4.36939 11.72109 8.49303
H 2.48599 9.86217 1.65493
H 10.73521 10.61628 11.30962
H 13.31956 0.60046 13.43400
H 1.68531 8.40000 1.48296
H 3.13326 6.14008 2.07978
H 14.79971 9.47174 12.60013
H 13.63530 6.73190 15.72058
H 13.23351 13.61358 13.61723
H 2.91561 7.86261 2.51123
H 15.63111 10.78131 12.22809
H 5.17657 3.57307 14.13255
H 2.67436 15.48271 10.29226
N 8.81314 1.61893 15.62262
N 16.32779 14.62077 14.47203
N 14.49490 0.92203 0.25828
N 11.10823 5.44294 9.19666
N 5.22529 9.03102 11.68360
N 0.12362 16.49690 4.70684
N 12.68398 12.58731 4.66815
N 13.15893 9.33843 10.89556
N 15.51169 14.76918 9.76339
N 0.17225 0.22681 12.35447
N 11.72060 2.27389 12.18426
N 4.18213 4.09995 1.18725
N 12.73426 4.18632 14.28635
N 15.52839 4.29650 12.25958
N 5.02006 14.96055 2.37301
N 4.22152 6.17571 13.77407
N 7.60347 3.11890 1.16987
N 12.69902 12.35301 16.37800
N 6.42300 15.64068 3.68446
N 7.78516 4.53464 16.07115
N 8.27808 6.47381 5.40339
N 9.32031 0.60598 15.72782
N 2.66673 12.91162 14.46183
N 2.80906 15.60747 13.53583
N 0.78207 11.88894 5.31420
N 11.61704 9.79266 8.24047
N 1.04299 2.48393 6.11754
N 2.90861 13.69565 7.61515
N 7.46420 14.52388 7.15509
N 4.03159 0.64468 9.67024
N 15.58569 8.55639 3.22365
N 12.96861 9.25366 4.23643
N 3.66004 2.21483 14.83914
N 6.97154 2.89621 5.87898
N 3.96741 8.73675 5.07567
N 6.99894 3.43878 8.67215
N 3.41439 4.30652 12.74145
N 8.63045 0.81514 4.82468
N 11.05421 4.75168 2.88046
N 15.03122 3.04227 15.17128
N 15.39365 7.49172 0.79036
N 8.41932 13.97444 2.45150
N 9.41335 11.28070 7.83133
N 14.85133 3.09060 4.84508
N 5.58334 4.23212 3.45706
N 15.70348 4.63473 3.28395
N 14.06789 16.30017 13.92952
N 0.10624 15.47665 1.71089
N 5.61086 3.02200 11.35745
N 8.90224 4.02070 13.19677
N 0.73237 8.05032 10.44519
N 13.50899 4.95933 0.85260
N 8.34064 0.00309 1.53366
N 6.48237 10.06364 9.30670
N 2.22828 6.66057 16.46724
N 6.45442 4.44470 12.53856
N 2.48425 15.48285 16.29854
N 3.78475 3.57671 9.39449
N 2.69753 13.07498 11.15809
N 6.92425 1.59896 12.56951
N 0.53453 4.39970 8.03437
N 5.39820 14.21960 13.19938
N 9.39659 1.71321 10.43040
N 11.42100 13.78612 6.07067
N 9.08692 14.25983 11.31887
N 2.47659 11.22096 0.31753
N 9.45049 13.67005 2.17901
N 9.03140 3.73131 5.51859
N 11.08591 11.12947 10.46382
N 8.03968 9.15897 0.39727
N 9.81035 9.36976 9.40449
N 1.16660 3.53219 8.11216
N 6.35824 11.77730 0.25452
N 8.50722 3.67598 4.15113
N 11.31973 0.47612 10.20735
N 14.72896 8.51570 15.48661
N 6.41344 13.82746 15.93044
N 15.24379 6.01741 15.37859
N 0.40343 12.95172 0.60261
N 14.31969 1.51154 13.01014
N 15.12570 3.37475 16.19469
N 1.45314 12.40635 4.52149
N 14.12542 2.25845 12.19729
N 1.19988 6.64929 3.88014
N 13.91809 1.47566 9.40039
N 7.16645 16.40165 10.82420
N 15.47781 4.16428 6.58941
N 10.02401 2.90576 16.44746
N 1.91809 10.10517 11.69737
N 5.09843 14.35746 5.06480
N 0.72065 5.70495 9.69404
N 7.20813 15.23094 4.43345
N 4.52104 10.61222 13.39724
N 2.21179 1.24242 8.79469
N 7.25929 0.06661 1.68103
N 16.11539 6.64980 13.23807
N 0.99211 4.37785 1.55075
N 9.80083 7.59315 0.42169
N 14.70266 14.14041 10.31359
N 0.72833 2.95346 5.16449
N 15.69326 10.99664 3.20169
N 3.25337 15.92308 7.42337
N 12.04784 1.81303 4.47256
N 5.78290 3.53580 15.02327
N 6.96147 5.15891 0.45481
N 4.46132 6.93642 10.72816
N 13.67784 0.54198 2.21528
N 13.37954 14.50732 4.87810
N 12.61769 6.71473 15.36752
N 8.46603 2.64140 1.84183
N 0.11402 4.07570 12.21970
N 5.39993 6.76503 4.33053
N 7.96670 7.00672 15.08236
N 14.66518 6.73532 10.07533
N 10.78003 0.57978 12.53353
N 14.68834 14.10990 16.30294
N 1.76812 7.25513 15.57503
N 15.08571 0.12223 16.34096
N 5.13162 11.67937 11.10729
N 11.85535 9.48071 12.99107
N 1.15167 10.33766 8.72658
N 8.86647 9.30680 6.86831
N 10.10751 4.27180 5.61228
N 0.44844 6.72186 3.08773
N 12.67711 5.73133 0.91060
N 12.33981 7.45833 8.96613
N 8.00884 15.33387 6.58781
N 12.71132 9.94534 13.72872
N 14.49699 11.12414 2.08594
N 0.40879 15.61441 14.17402
N 8.90537 15.70755 8.59422
N 9.97630 2.72421 8.49337
N 0.25480 7.85960 6.99953
N 15.75747 0.17868 4.04772
N 16.09822 16.08134 11.60531
N 14.38951 12.77850 12.62037
N 10.68497 11.14665 6.10219
N 16.45076 0.46010 7.11280
N 4.05434 0.34047 12.03690
N 3.73790 4.51685 0.23742
N 14.17518 12.28754 7.99887
N 6.54770 6.30207 8.77639
N 4.88067 15.88031 1.83166
N 4.60471 6.40699 14.80836
N 0.25909 12.73223 8.09311
N 6.30358 12.48212 2.80506
N 9.68783 12.86778 4.57791
N 1.69763 4.95829 14.44738
N 4.46025 2.53865 3.94455
N 10.94987 0.98969 1.42368
N 3.54298 12.35537 14.81528
N 7.39755 12.79165 9.85952
N 13.42173 15.53442 11.69045
N 12.45837 10.54399 8.13261
N 14.02584 8.42010 6.80540
N 2.49645 13.53491 6.50432
N 12.59498 12.94450 10.62628
N 14.80760 9.61526 9.14473
N 4.30093 8.46159 15.30889
N 13.16787 5.58818 7.85122
N 8.02661 7.92106 10.81924
N 10.60982 11.61173 2.29329
N 3.31149 8.75242 6.04328
N 6.25013 4.07840 8.04812
N 16.16224 14.10819 6.16063
N 7.57449 0.87249 4.50679
N 10.55563 3.73123 2.64077
N 9.22976 10.09567 11.46205
N 14.42049 7.99871 0.10418
N 7.24413 14.31432 0.05607
N 9.07360 11.33978 8.89653
N 14.86938 1.98225 5.50806
N 9.92648 9.54268 14.69856
N 14.99571 5.38031 2.66481
N 12.35733 15.56133 16.15903
N 12.48683 1.80369 7.35745
N 6.58997 2.88611 10.86559
N 9.57123 4.72869 13.86321
N 4.03654 11.80757 3.84722
N 9.23371 5.45589 1.19517
N 15.70502 10.01570 5.54806
N 11.82984 15.74973 8.26170
N 2.31746 4.35507 3.28757
N 6.72407 5.44483 12.90871
N 7.88435 12.52569 14.59164
N 3.18105 3.21216 10.19270
N 2.16745 12.75103 10.16359
N 7.12703 1.48710 13.63888
N 3.33050 11.34410 7.14036
N 6.42599 14.62099 13.05621
N 3.92842 7.08968 7.42677
N 5.93584 9.84818 4.97972
N 9.58099 13.29602 11.79312
N 9.76601 14.33157 16.06205
N 9.30869 11.27131 16.02319
N 13.61464 4.41920 10.06264
N 8.86315 6.34994 8.02533
N 10.62885 11.80430 13.58295
N 9.19780 8.38977 9.62026
N 1.23426 2.28670 11.49618
N 11.98295 1.52540 14.76041
N 10.10844 7.27374 12.68819
N 4.74154 4.88352 6.27015
N 15.34969 7.54574 12.54803
N 10.06859 15.20627 3.53876
N 16.00212 5.42999 14.94045
N 0.75182 13.85305 0.02014
N 1.38567 2.69990 0.07457
N 15.36110 12.27172 15.01219
N 0.80120 13.01099 12.66035
N 8.34708 5.13120 9.94992
N 5.83722 6.99903 1.45458
N 14.77531 1.28117 10.08525
N 10.06702 8.04915 3.89645
N 15.11072 6.70300 5.27209
N 10.97978 3.41959 16.34234
N 1.10406 10.63913 12.33034
N 8.17220 11.27998 3.08834
N 1.10467 4.96330 10.41953
N 10.98779 16.25217 6.39387
N 5.37331 11.39322 13.57447
N 1.13503 1.07753 9.15824
N 12.65713 10.34118 16.35371
N 12.07658 5.69265 11.63319
N 0.80947 5.35174 0.92999
N 1.50624 5.28688 6.10862
N 13.72654 0.07773 7.26698
N 7.14032 1.17027 8.00850
N 3.94180 13.27810 0.50386
N 11.11933 7.27099 6.75042
N 11.03708 1.51563 4.73233
N 15.19217 14.54034 2.85830
N 9.53437 14.68288 13.68709
N 4.20180 5.96570 11.15636
N 2.35505 15.27625 4.81332
N 13.23194 15.58958 5.04839
N 11.59184 12.38304 0.04885
N 15.15333 2.37922 2.84531
N 12.86225 4.95879 3.98960
N 6.83322 11.72658 6.52998
N 6.95873 7.43581 15.18351
N 2.42111 0.32985 1.91926
N 11.41842 16.27880 12.87882
N 14.39102 14.13527 0.84704
N 1.28097 11.62652 2.41246
N 6.11209 0.25369 15.51120
N 6.42107 8.10210 6.98591
N 13.15885 7.25245 2.69997
N 1.27340 10.46063 7.64093
N 8.73806 9.40643 5.71490
N 11.00118 4.85529 5.76741
N 4.72064 14.71644 10.53730
N 3.05144 9.52899 9.95863
N 11.66577 3.30105 12.29341
N 1.88394 13.86543 3.19001
N 4.73594 0.75458 5.12409
N 13.38520 10.90213 2.22916
N 0.20169 9.63781 16.33151
N 9.59805 15.74938 9.48785
N 11.13244 2.65014 8.61599
N 1.60054 9.49604 5.03208
N 15.15066 3.33641 7.46348
N 14.30064 15.51893 12.95763
N 14.28202 11.71837 12.26448
N 11.82431 11.24051 6.22214
N 16.42967 0.11178 8.16189
N 3.64216 1.25568 12.61214
N 7.80242 7.89593 3.35231
N 14.30760 13.30520 7.46862
N 5.67395 5.70128 9.08347
N 1.61626 15.47397 9.99921
N 7.32735 9.60585 14.23563
N 0.62635 13.69007 8.50144
N 6.29281 12.65206 3.88669
N 9.20813 12.07528 5.29134
N 1.62018 3.92816 14.86167
N 4.69716 2.03453 2.99560
N 10.40522 0.26882 2.11435
N 4.99199 8.67246 12.65766
N 6.98111 13.80029 10.17502
N 0.37009 11.82888 9.99860
N 5.11504 14.09378 6.14095
N 14.11910 7.77450 7.66614
N 0.86882 7.24488 7.72300
N 11.73654 13.61336 11.01814
N 15.37047 9.38419 10.01743
N 3.65811 9.38315 15.62820
N 12.76762 4.54182 7.66146
N 6.92819 7.52344 10.78315
N 10.40898 10.68586 1.67332
N 2.22235 8.94842 2.12929
N 5.49415 2.22371 0.74024
N 15.86570 13.42412 5.30435
N 3.60941 2.57948 6.65328
N 1.96969 7.68668 12.80159
N 8.01925 10.54707 11.51857
N 1.59754 9.84799 14.36165
N 3.56650 6.94318 2.63129
N 16.12543 11.51587 10.84008
N 5.90664 10.95167 16.17027
N 10.59042 8.62086 14.59655
N 12.14837 14.30913 1.69397
N 11.60794 15.66544 15.40025
N 12.47734 2.54443 6.53113
N 10.65145 14.52725 5.70641
N 10.18892 5.20321 14.81274
N 3.18256 11.06198 3.55650
N 8.95013 5.98503 2.04736
N 15.33635 10.98111 6.07445
N 12.45984 15.51156 9.04980
N 2.72871 4.13336 4.25129
N 7.24785 9.37302 1.20583
N 7.75230 12.47406 13.49115
N 5.30172 10.05146 1.78923
N 4.82723 12.40184 7.85368
N 12.51916 13.91656 14.19521
N 3.53579 11.31939 6.04521
N 12.08689 13.50989 8.45681
N 3.69755 7.26085 8.49189
N 6.62890 10.08238 4.14001
N 4.86227 9.38084 2.61655
N 9.95513 15.21860 0.21612
N 8.88183 12.19692 0.34467
N 12.91375 3.65166 10.51465
N 9.06151 5.32931 7.51505
N 11.37879 11.45793 14.42147
N 12.92830 2.73807 1.20655
N 0.86329 2.81290 10.62693
N 12.93775 1.87405 14.97614
N 9.90451 7.47174 11.67705
N 3.95089 4.85111 7.05910
N 14.29887 7.52153 13.35656
N 10.94788 15.62883 4.06520
N 11.07420 13.20764 8.44060
N 15.96682 10.44382 16.40898
N 1.00505 1.58032 16.41667
N 14.34919 11.73756 14.69788
N 16.48825 12.58471 13.18851
N 8.37277 5.67040 10.95339
N 5.09595 7.81024 1.35821
N 0.78357 2.15608 13.96483
N 10.68501 8.98343 4.13900
N 0.01919 1.46414 14.35608
N 10.84790 7.91959 0.75270
N 15.52561 10.00819 12.92937
N 8.69192 10.28439 3.03872
N 12.76787 0.26574 2.86520
N 10.47745 0.70487 6.69374
N 3.35261 1.68900 15.75809
N 7.20915 6.22225 5.26321
N 12.33694 9.41765 15.82588
N 12.47010 6.10317 12.60313
N 12.01350 1.29174 10.52594
N 2.07902 6.23918 6.31702
N 14.50475 15.78978 7.52544
N 6.31101 0.35467 7.93525
N 4.27185 12.54271 1.23487
N 11.73369 7.29909 5.85088
N 15.97056 6.22250 5.71482
N 14.91443 13.65230 3.42966
N 8.92717 15.60209 13.75235
N 14.88755 6.07111 9.19662
N 1.47825 15.10451 5.44257
N 12.41002 2.64302 2.16717
N 4.35556 6.26662 4.51866
N 16.29635 2.05194 2.54469
N 12.97378 4.77910 4.99441
N 6.24803 10.82526 6.58431
N 12.78949 8.29198 11.12671
N 2.17407 1.51527 2.12459
N 9.42073 2.49974 11.16979
N 2.57006 5.00095 12.43472
N 0.36403 11.24518 2.88176
N 4.71438 16.29658 15.82865
N 5.62063 8.63089 7.58424
N 12.09735 7.05319 2.62190
N 12.52554 12.20047 3.59756
N 13.48585 9.87027 5.04318
N 6.44577 4.77732 3.18294
N 5.09572 14.21075 9.57201
N 3.82263 9.80993 9.19571
N 11.67582 6.51356 9.10866
N 2.42091 14.04790 2.22683
N 5.51390 0.36460 5.75431
