512
16.500000000  0.0 0.0 0.0 16.500000000  0.0 0.0 0.0 16.500000000
H 5.86998 2.85515 10.64825
H 3.98300 4.48728 13.43347
H 4.71620 12.02673 9.79963
H 7.68664 1.00403 7.53131
H 10.91673 9.92356 16.01559
H 15.43453 2.72682 0.27004
H 1.30953 12.51661 2.36589
H 14.35476 3.59963 9.77905
H 6.28491 0.96262 10.04647
H 0.49416 15.78263 7.53685
H 4.23899 1.96067 3.28335
H 9.51787 13.05785 0.73458
H 3.70090 2.27383 2.03623
H 7.33191 11.53366 16.36365
H 3.05593 15.06176 10.96038
H 6.82767 10.67810 15.20617
H 0.69680 14.28519 0.30161
H 13.41808 2.83429 11.46456
H 12.73206 10.15236 14.49643
H 0.42034 6.53315 4.21215
H 6.46608 15.56327 3.41712
H 14.87713 8.52693 12.04728
H 14.86608 2.70363 14.84115
H 0.52054 0.36761 8.23694
H 9.55188 9.49323 3.93197
H 11.14559 13.77655 0.50613
H 7.84583 4.88123 15.19509
H 16.42914 12.44927 2.54226
H 0.12254 0.48022 13.39064
H 6.21585 3.84816 9.06012
H 13.28927 2.64438 15.90821
H 4.87179 6.17281 7.12489
H 5.14761 0.86794 12.20516
H 6.35220 4.15020 2.54493
H 14.34664 7.02205 12.81058
H 4.22928 14.67692 9.89899
H 4.50615 2.97059 10.84403
H 11.88451 2.66580 0.40190
H 15.65450 7.34311 11.95217
H 11.09293 12.28984 12.19941
H 2.79001 2.18838 3.37309
H 7.75896 2.52714 16.28131
H 12.33147 14.98657 0.39701
H 3.90769 15.94378 14.31551
H 15.89344 2.97669 1.63170
H 6.33751 1.73810 8.70239
H 9.46650 4.26277 15.34445
H 12.23313 0.66281 0.58232
H 6.97328 5.00960 5.28766
H 3.24594 11.25964 2.57699
H 3.47458 4.39114 14.88575
H 13.40991 2.52751 14.22368
H 2.35075 4.09171 13.92910
H 0.48431 15.97274 15.02529
H 12.45859 8.91739 13.10000
H 2.49534 12.97256 5.99657
H 7.96295 4.65308 7.47321
H 10.98338 10.55836 11.98392
H 3.46763 3.10739 13.69677
H 4.60284 4.88894 6.17054
H 13.66320 2.06284 0.70304
H 9.08599 10.66499 15.75896
H 6.41374 3.57754 7.73855
H 6.35951 15.95951 9.39478
H 7.84973 9.65706 3.10563
H 5.76701 6.79432 0.88925
H 7.49920 14.31983 1.62792
H 0.06789 11.79732 13.78270
H 7.24439 3.21515 10.31796
H 12.13790 11.27248 13.07996
H 0.83257 12.96543 14.54686
H 6.44336 3.59104 15.82803
H 3.27936 15.02706 13.01039
H 15.67177 15.64206 14.30970
H 11.82087 11.34666 11.43858
H 0.58702 7.54670 3.10752
H 6.39970 0.83286 4.68236
H 11.54362 7.60648 15.24310
H 3.08113 4.23402 11.11525
H 2.08146 0.30960 7.03351
H 10.96034 2.48796 13.45019
H 8.68400 10.67837 4.61849
H 16.15272 8.99856 0.08156
H 14.83090 2.96556 8.35983
H 4.78230 0.08911 10.19180
H 12.72282 4.56475 11.45029
H 15.82920 14.42963 16.32555
H 2.09116 6.85770 3.95127
H 7.72716 12.39286 15.04805
H 1.26784 11.57694 14.62909
H 3.92548 2.23211 11.98922
H 5.54339 5.62930 2.57428
H 0.20082 8.70075 14.87618
H 5.32682 12.09247 8.31535
H 10.00472 4.16698 12.94282
H 5.39283 0.43501 3.82345
H 0.50154 7.94985 5.32038
H 12.36583 7.51961 4.63467
H 0.16724 13.05581 16.28843
H 5.19338 4.06331 1.52766
H 1.22038 12.10773 3.56752
H 3.20117 0.28395 13.00954
H 3.63721 3.52433 12.18091
H 11.90537 3.81365 12.79185
H 6.45638 0.45046 7.27866
H 11.82164 16.05026 15.93157
H 11.56259 6.19336 4.96475
H 6.92166 6.31094 6.12669
H 1.49141 8.95535 16.21852
H 0.21555 2.80252 0.57868
H 4.93386 7.19965 16.31974
H 7.85705 3.08447 8.20006
H 9.22999 9.61177 15.01695
H 13.91077 3.85970 12.29894
H 10.46816 13.52474 1.81187
H 2.57930 14.25339 7.51826
H 6.52816 14.18195 16.28900
H 10.79200 15.63274 0.78036
H 2.15679 14.67628 6.25116
H 6.26203 13.57456 1.31621
H 0.50817 10.26285 15.57760
H 2.20655 15.59838 13.73335
H 11.26963 4.15042 14.15200
H 9.30009 9.51766 0.28409
H 11.50220 7.60743 5.99034
H 13.95786 4.11542 8.21670
H 3.67003 0.84000 11.48402
H 3.65205 13.38354 10.61328
N 15.20499 1.33102 16.22477
N 12.58702 14.17448 12.45811
N 2.91830 5.88683 2.02231
N 11.12817 6.38422 12.35866
N 4.07597 9.35569 11.16249
N 2.30378 2.56462 16.39184
N 13.83326 10.48870 2.66813
N 9.43191 7.02221 13.50281
N 14.68572 15.41057 13.09253
N 14.63193 2.13125 11.41232
N 12.80313 3.50239 6.17355
N 4.95411 6.53825 3.31008
N 3.32952 3.88679 14.11450
N 10.60038 15.74874 13.44481
N 3.53472 13.01956 3.65569
N 6.56342 6.45743 13.60163
N 4.62719 2.29118 0.36184
N 0.73895 11.49035 0.70019
N 5.99237 12.52212 3.00344
N 5.31062 2.16873 14.61166
N 7.77571 7.59579 3.02503
N 14.53831 0.46044 15.95317
N 1.93422 16.05682 0.07198
N 16.36534 16.43414 14.28862
N 15.85910 13.62203 7.53157
N 13.41250 9.73233 11.66110
N 4.87554 1.56716 5.86597
N 1.51883 15.11295 9.59841
N 12.11679 10.79813 10.23136
N 7.32302 3.88235 7.99912
N 11.45274 7.27280 4.95882
N 10.52173 6.48626 2.26538
N 1.17684 3.25691 10.96607
N 3.40332 1.67078 2.95208
N 5.68350 13.57166 8.90373
N 10.27615 5.11492 6.59529
N 14.59218 9.45736 14.14791
N 10.63219 11.66450 4.11737
N 8.75947 4.09914 3.20504
N 0.08877 3.62999 3.37305
N 1.20239 7.17761 3.90219
N 9.07187 11.25572 7.43772
N 6.92561 12.94462 7.12693
N 15.94542 6.95219 6.16464
N 2.38621 6.58190 15.05511
N 2.12094 7.67898 7.59033
N 14.40084 12.00424 13.04176
N 14.05849 3.23001 14.68382
N 1.10828 5.24396 8.70279
N 5.58931 12.04753 15.95808
N 14.68551 7.54202 11.95981
N 10.90683 3.78137 0.57939
N 7.08651 0.27430 15.44634
N 6.41147 16.47663 4.03031
N 1.77679 7.92521 12.72355
N 7.47222 7.06637 11.12101
N 0.15519 14.06857 15.88998
N 4.37047 4.76842 8.82273
N 6.79297 11.92206 11.57694
N 2.74053 12.95024 14.71617
N 7.84586 2.42423 5.26431
N 8.50820 14.38514 9.13640
N 7.78934 0.10947 11.98114
N 10.53460 15.89462 10.90247
N 8.43062 12.46004 9.98168
N 8.62536 9.89640 3.64889
N 9.37712 10.24493 7.13924
N 10.47154 4.00554 4.79406
N 11.30725 11.34139 12.60686
N 7.20331 5.50741 0.91741
N 10.69801 6.96497 8.21750
N 8.09866 3.45168 5.60472
N 7.79351 11.20886 1.86403
N 15.99706 3.42545 0.77151
N 4.58367 15.80607 16.33223
N 1.70767 4.90386 6.52822
N 3.85732 12.32221 13.09518
N 0.28567 3.50845 14.69482
N 0.73480 14.48128 5.04838
N 15.41355 5.31618 12.30413
N 0.94433 4.32186 3.00504
N 0.28413 13.74090 8.21583
N 15.40000 4.34572 12.76533
N 3.22214 9.64518 4.81183
N 0.24358 7.95423 9.78889
N 6.50727 2.72290 9.80525
N 6.25225 5.64525 5.70006
N 11.85890 0.28009 14.35857
N 1.63443 9.81565 10.13333
N 3.00024 16.38781 4.68133
N 3.97716 2.45221 8.36430
N 6.38038 13.14768 3.80215
N 2.81981 6.95698 10.91990
N 6.16928 4.57498 11.47847
N 6.56434 15.79150 15.16104
N 16.30711 0.82448 9.55353
N 1.73127 1.90394 5.11708
N 9.90638 6.88187 16.39099
N 15.01166 15.90079 12.02512
N 4.27738 2.51236 6.17988
N 0.00035 10.15735 4.22505
N 1.34146 16.26416 7.71332
N 10.91230 0.91951 2.15045
N 3.76443 3.61987 11.16389
N 5.72303 2.75330 13.76282
N 1.33360 5.13708 12.54411
N 12.31532 13.50454 2.50242
N 11.81987 15.00908 5.40042
N 10.88683 3.64793 13.30617
N 5.52997 1.61486 0.68683
N 10.02587 14.91068 13.91481
N 4.79365 11.65072 5.73476
N 8.37589 3.82526 12.54912
N 0.94746 10.91813 12.47838
N 5.77935 15.14945 13.14287
N 14.87593 15.91717 1.96968
N 2.34639 8.59437 13.49663
N 3.18542 4.74694 1.82559
N 5.13624 11.32951 9.06961
N 7.15905 13.26950 13.80178
N 2.82826 12.02926 9.26504
N 11.73190 10.26048 4.40104
N 11.28476 4.17756 3.93104
N 2.45551 10.94440 3.01170
N 11.70056 4.29668 16.46551
N 10.93733 8.57854 11.53506
N 11.01748 10.37645 9.89230
N 6.07531 13.20514 14.07192
N 13.79877 8.20354 0.46830
N 12.35140 15.10665 11.97289
N 12.48608 1.54453 11.97203
N 13.05191 1.07023 6.59004
N 2.69503 9.91773 7.22706
N 2.35404 3.67754 16.32838
N 15.24956 2.01394 12.42096
N 14.30096 5.93379 0.20800
N 13.57510 7.87646 6.08938
N 3.20966 0.24978 8.60867
N 11.85711 2.36856 9.13498
N 4.71875 6.37430 4.38278
N 14.35594 11.48574 7.95517
N 7.73468 6.98459 8.18409
N 3.74889 13.86937 4.36497
N 6.77851 6.06251 14.60477
N 11.33095 12.68429 7.51649
N 6.89398 9.90130 6.67102
N 11.98849 11.38867 1.26597
N 0.54241 5.81408 1.05620
N 5.07664 5.23031 15.35324
N 9.26417 11.12692 13.57310
N 2.65047 0.37591 16.29758
N 8.02290 15.45996 6.24600
N 11.68314 15.91056 0.37678
N 14.00754 10.46713 11.03645
N 16.01456 9.70415 7.78175
N 0.76907 14.94176 10.45573
N 9.47331 13.83696 11.88961
N 14.37328 14.10982 10.60360
N 3.80312 9.51275 15.49999
N 14.26784 5.21649 4.27525
N 7.12699 9.62455 9.48722
N 14.47870 10.61047 5.96451
N 6.49088 13.76116 9.73831
N 9.17017 5.29264 6.67175
N 14.49889 14.57882 5.56021
N 11.03368 12.70838 4.22875
N 8.92179 4.56891 2.16988
N 9.35289 8.96228 9.75404
N 1.46170 5.12730 5.51527
N 3.28459 11.84296 12.19179
N 6.55777 13.14097 6.08271
N 16.03194 6.85626 7.35365
N 4.36409 7.11626 13.29677
N 2.67023 7.61116 8.58083
N 9.71531 1.60243 15.29415
N 15.06974 6.08195 9.66453
N 0.35708 4.53576 8.34157
N 4.69392 11.90963 15.37576
N 14.36763 12.87976 2.11610
N 7.42593 3.57207 16.46391
N 13.33088 13.89416 7.24246
N 15.54341 2.95446 6.01811
N 3.84151 4.32900 4.73117
N 8.60093 7.10739 10.82642
N 5.49050 10.79911 13.50706
N 3.66747 5.17227 7.98416
N 5.71678 11.69398 11.37772
N 3.23903 13.72307 15.30660
N 5.63212 15.16088 7.07376
N 9.46803 14.56607 8.72319
N 16.20435 11.91731 10.41418
N 0.92926 11.53079 6.25506
N 9.37143 11.77514 10.53694
N 7.88505 0.54410 0.87090
N 12.31716 9.25233 14.22162
N 14.01355 0.62203 9.59708
N 8.36643 7.60325 5.61565
N 13.46192 6.19259 13.72091
N 11.86029 6.76721 8.26672
N 1.90321 1.60854 13.87455
N 8.59718 14.25782 15.38713
N 9.44928 4.44225 9.27680
N 5.53712 8.97571 4.21776
N 15.94003 1.89009 9.16528
N 13.03233 13.10379 4.97221
N 0.75234 4.44816 14.91264
N 0.71022 15.33445 4.18682
N 0.75912 14.45848 1.74712
N 13.76322 11.17425 15.54643
N 7.68808 8.64961 12.60223
N 8.72146 2.30626 11.09915
N 5.49861 10.68986 1.72233
N 15.91184 8.64343 9.91743
N 6.69890 8.84995 1.45984
N 1.33956 8.81962 1.95338
N 12.62701 0.51276 13.74778
N 2.44285 10.33160 10.52657
N 8.01846 8.43494 15.30369
N 4.19001 1.90645 9.39056
N 9.40055 2.81935 7.00047
N 3.04623 5.89557 10.73936
N 5.71161 5.46245 11.10424
N 13.93837 7.98092 3.36335
N 0.16716 7.00551 14.33135
N 1.08366 2.68394 5.08484
N 3.48943 8.00765 2.32861
N 15.70666 0.79849 6.65474
N 10.91327 15.89684 7.39156
N 5.52668 15.17593 2.42813
N 11.89699 10.27153 7.15836
N 10.26817 1.79770 2.37583
N 11.56092 11.84053 15.25971
N 8.46499 13.35900 3.21082
N 1.35963 5.52334 11.44908
N 1.04123 0.88130 3.22606
N 11.04360 15.33811 4.67560
N 1.78014 11.01842 0.88894
N 1.81321 2.56901 7.54275
N 9.22132 1.26017 5.29583
N 12.76729 9.08534 9.13612
N 8.18154 3.06247 13.44018
N 0.85498 0.94443 11.18265
N 5.67228 14.71364 12.11455
N 15.74578 0.10923 1.84008
N 3.17292 10.27003 3.75513
N 4.38191 1.44048 11.96024
N 3.14640 7.36728 5.72750
N 13.99137 3.46082 2.22090
N 2.30483 12.94798 9.11601
N 11.65044 9.39760 3.81157
N 11.42097 3.97379 2.79282
N 8.86002 0.69444 9.10028
N 5.60458 8.59217 7.61707
N 12.82795 4.02962 7.14940
N 15.21297 0.43465 4.57153
N 7.06362 2.41551 2.34465
N 14.12687 8.62578 15.97560
N 3.15975 13.18525 1.72190
N 11.74058 1.43728 11.16286
N 13.04052 16.45644 7.03184
N 0.65362 12.84971 3.11255
N 5.30009 5.30229 6.70062
N 14.86793 12.73599 13.77718
N 13.21239 5.98177 0.28353
N 13.64169 7.84700 7.16008
N 4.05272 16.12541 8.29127
N 11.72880 3.44481 9.50255
N 5.31759 4.27131 2.57645
N 14.58652 10.92923 8.79554
N 6.70545 6.62459 8.48398
N 3.68903 14.34880 10.65101
N 7.73348 11.38357 15.43778
N 10.36853 12.76956 6.89503
N 7.08877 10.87643 6.06054
N 10.95995 11.52567 1.55206
N 1.31196 5.10992 0.56780
N 4.36925 5.47911 16.20157
N 8.86056 11.61196 12.67386
N 5.02384 8.84537 10.94533
N 8.98751 15.05892 5.95766
N 0.56517 14.04668 13.12802
N 3.16604 0.03437 5.79155
N 15.90347 9.34144 6.62106
N 1.80190 10.37214 7.65910
N 8.34182 13.93257 11.53307
N 14.94366 13.41068 11.34708
N 3.32537 10.27953 14.87767
N 13.29374 5.67893 4.65840
N 7.10965 10.64264 9.02085
N 14.06042 10.39856 4.93791
N 7.13964 13.94309 0.70184
N 12.56307 1.88801 0.58733
N 14.91884 13.65689 5.11256
N 6.65585 1.47524 7.41546
N 0.44384 12.06340 14.70071
N 9.66677 8.46223 8.84364
N 5.18697 7.60031 0.64813
N 0.60361 9.21663 15.89274
N 1.48536 13.80671 12.56066
N 8.57499 11.87453 1.29981
N 4.32432 6.05431 13.09568
N 10.26791 13.88745 0.93546
N 10.50132 1.58108 16.02700
N 14.06458 6.24755 10.07291
N 11.04241 15.86001 9.81909
N 13.03823 3.81862 11.95538
N 15.09858 13.72830 2.44594
N 8.21389 4.08322 15.55024
N 13.99075 14.32308 7.99512
N 14.97764 3.72574 6.53887
N 3.50646 4.15376 3.71818
N 7.42423 6.28284 0.09305
N 5.86700 9.78142 13.75270
N 11.24926 8.83475 1.35745
N 2.42138 13.75498 6.71917
N 9.88948 10.09306 16.06109
N 5.18333 14.61632 6.21672
N 11.41271 13.40729 9.99527
N 0.05088 11.34446 9.54542
N 0.06374 11.94914 5.70927
N 11.88203 7.93397 1.62183
N 8.27660 16.23887 1.60863
N 11.73175 8.76971 15.24426
N 13.11848 0.09466 9.18236
N 9.39445 8.07349 5.36771
N 12.73806 6.50094 14.46397
N 12.16614 1.90049 4.03156
N 1.69521 2.59030 13.22151
N 8.88760 15.23821 15.69750
N 9.81264 5.41161 9.70943
N 6.03526 9.95815 3.88038
N 14.60986 3.72568 8.85205
N 12.73673 12.26959 5.67068
N 12.27645 12.95462 10.54087
N 3.18988 12.73857 0.70915
N 1.56083 15.17768 2.03107
N 14.17962 11.69750 16.43401
N 8.28009 9.33794 11.92225
N 9.85684 2.25129 11.23574
N 4.47524 10.74076 1.28393
N 13.40532 14.04074 16.30726
N 7.76585 8.75721 1.11126
N 13.35860 14.44591 15.17091
N 10.12382 6.13149 15.62490
N 3.15541 15.85920 13.57729
N 6.93792 8.57950 15.05693
N 12.59746 14.46713 2.89446
N 10.15081 2.53886 7.75292
N 0.22086 3.38754 10.58541
N 7.24003 6.75370 3.47784
N 14.71703 7.57946 2.60076
N 15.60353 6.59288 14.52173
N 4.77955 14.68502 16.40194
N 3.83468 8.46372 1.31556
N 15.32457 16.32058 7.07835
N 10.41331 0.38610 7.08719
N 4.43651 15.38511 2.84608
N 11.93177 9.19651 7.11860
N 0.62284 9.57236 2.30311
N 11.71033 12.90548 14.85433
N 8.69490 14.40301 2.69163
N 0.47124 9.96702 11.97756
N 1.46772 1.60749 2.46467
N 13.23305 2.27096 3.82585
N 3.73152 11.73938 5.92225
N 1.57963 2.53626 8.56738
N 9.65885 1.08112 4.37682
N 12.82762 8.29140 9.95620
N 9.83978 8.01657 13.73016
N 1.77627 1.01384 10.39497
N 8.02220 0.35344 13.04198
N 15.76877 9.58643 13.94013
N 0.61054 9.44155 4.98452
N 5.89919 0.05280 10.22166
N 3.83255 8.22193 6.04052
N 14.52266 4.46709 2.24454
N 14.63142 10.15513 2.11356
N 10.02381 6.80051 3.15763
N 2.48597 7.11933 16.02855
N 8.36326 0.41401 10.00488
N 5.07218 9.08340 8.42751
N 10.96781 7.36561 11.63504
N 14.49725 16.32051 3.97650
N 7.65161 2.17822 3.24528
