512
16.500000000 0.0 0.0 0.0 16.500000000 0.0 0.0 0.0 16.500000000
H 8.39052 3.36462 14.28406	
H 13.70768 9.46225 4.37169	
H 2.89886 6.52303 11.23734	
H 0.89108 15.56617 9.83529	
H 14.46059 9.82248 5.68186	
H 13.60669 15.60031 14.22046	
H 16.25654 13.95020 5.74116	
H 10.05743 12.17754 11.07889	
H 11.13659 11.53131 15.78963	
H 2.49878 0.09094 11.21953	
H 9.32231 1.73089 2.56565	
H 5.84650 12.67043 4.81777	
H 16.40127 15.71278 13.09930	
H 16.29154 6.99808 14.46059	
H 2.38442 12.42489 12.66146	
H 1.34520 7.44228 8.73221	
H 1.59766 3.72829 6.16807	
H 1.01954 14.12400 9.03162	
H 8.03782 8.46061 14.46086	
H 4.35078 3.85727 3.19838	
H 1.42557 12.51113 9.46911	
H 13.88729 7.67122 2.54583	
H 5.94197 15.87200 15.71175	
H 15.91121 2.46852 15.95603	
H 0.76326 9.52484 2.72585	
H 7.12025 11.60167 5.10612	
H 0.73836 14.60399 13.11978	
H 7.79370 7.96487 6.33189	
H 5.52571 4.02804 13.64314	
H 16.16138 14.68242 10.75204	
H 0.05049 1.50626 2.06700	
H 5.60020 13.79534 9.32834	
H 14.16929 4.81321 4.07355	
H 10.88638 7.91471 15.49505	
H 12.35181 6.92327 3.24911	
H 2.76866 13.91873 11.84035	
H 7.05113 3.25910 13.37169	
H 1.10421 14.89673 3.86609	
H 0.13670 8.34780 14.88100	
H 8.14878 10.03516 13.66217	
H 2.33224 13.27227 9.48984	
H 7.18190 15.34476 9.85141	
H 10.49773 12.71731 14.76320	
H 13.82998 7.89798 0.69573	
H 4.44825 1.38172 3.07601	
H 13.28165 4.27860 11.71434	
H 8.91235 2.90497 2.63877	
H 1.26072 1.63600 2.94598	
H 14.30141 10.98580 2.10232	
H 1.37403 13.50337 6.80669	
H 11.37326 1.41944 14.55141	
H 1.81851 1.61290 1.36068	
H 11.94104 9.56598 10.27942	
H 2.46034 3.12043 3.80191	
H 5.48533 10.67051 2.20196	
H 7.31495 2.59277 12.47734	
H 2.21623 7.41174 10.48339	
H 8.85540 6.47159 6.29558	
H 6.25785 4.50573 15.51724	
H 6.36610 6.37496 15.33128	
H 1.54387 13.58329 4.92061	
H 0.57192 8.57592 7.72202	
H 1.95401 13.55165 13.41232	
H 13.30430 1.83875 14.56919	
H 14.91032 14.28121 4.60683	
H 9.07129 16.19634 4.58181	
H 0.48389 8.87123 1.27906	
H 13.59501 10.04065 10.93016	
H 13.61002 5.85946 12.53342	
H 5.52752 11.68404 6.30301	
H 1.31768 2.40262 4.69973	
H 10.18683 6.92472 7.64379	
H 12.80600 16.05470 2.63492	
H 2.65223 1.14448 12.69829	
H 12.19787 1.62254 13.50534	
H 14.26912 13.83397 2.10405	
H 13.80747 6.37439 3.82382	
H 7.16260 6.34428 5.84873	
H 13.31444 9.23666 2.11669	
H 10.57828 2.50104 3.59048	
H 5.97525 5.88156 0.91211	
H 2.99471 2.56746 5.30158	
H 3.66360 0.07759 3.43999	
H 1.13889 7.20809 15.05433	
H 1.23218 14.12802 11.01764	
H 8.68251 16.46191 16.42981	
H 6.55874 15.50124 14.34601	
H 2.48728 2.83073 14.90807	
H 16.23753 8.26664 9.03262	
H 16.27259 9.50628 9.41529	
H 15.59312 14.11400 13.32182	
H 12.28761 5.81186 12.43580	
H 2.46307 3.60119 0.06374	
H 2.86496 6.05993 9.65897	
H 9.33645 7.54159 15.32602	
H 5.78821 15.93372 9.05078	
H 8.85721 1.93882 3.96158	
H 6.13577 4.23301 1.22470	
H 0.88902 16.01407 1.62031	
H 2.32348 1.77304 11.35426	
H 1.75310 6.50640 2.89008	
H 6.46822 1.04745 14.23254	
H 0.64950 13.46348 3.46675	
H 13.44054 7.45657 4.23143	
H 14.50527 14.71373 5.88864	
H 6.56403 6.04564 13.67815	
H 4.72564 4.94063 1.30213	
H 1.33535 1.98488 6.35584	
H 5.52188 11.64596 0.48007	
H 13.19091 6.32589 10.61336	
H 15.59193 5.45804 13.72302	
H 14.04678 16.09841 3.44478	
H 9.82648 11.17136 15.29899	
H 12.37295 12.59722 10.79925	
H 6.31784 12.97439 6.09627	
H 4.16143 10.99997 8.23409	
H 2.83925 1.59473 3.32196	
H 5.11799 9.16769 1.84519	
H 15.27158 8.67183 10.57560	
H 2.09143 10.44506 0.25756	
H 3.20184 5.53134 2.39356	
H 14.99280 9.11052 8.66420	
H 13.37183 6.08881 5.82874	
H 10.15051 12.55368 16.25249	
H 3.20775 4.83097 3.91787	
H 13.15410 8.47078 7.93199	
H 7.02550 14.95067 8.26684	
H 4.35682 10.10430 10.04111	
N 16.35914 14.90837 12.86109	
N 13.93824 13.97576 11.36792	
N 15.20229 5.08544 11.21393	
N 7.45164 10.14767 9.10516	
N 0.13619 9.90047 11.87198	
N 0.18598 15.29874 1.59108	
N 12.46327 11.85896 4.29829	
N 6.74162 8.02834 0.85389	
N 15.22587 14.00492 5.59677	
N 15.72251 14.41291 8.04347	
N 14.30700 2.90116 12.26192	
N 8.32482 8.06980 3.90147	
N 13.93819 9.04120 5.16901	
N 7.72224 8.03604 11.90272	
N 3.68373 13.44937 4.50322	
N 4.21828 4.06102 11.19314	
N 3.56514 4.42062 14.63326	
N 7.02721 10.87301 16.43942	
N 13.82206 11.87965 1.82843	
N 7.33927 0.83879 14.68365	
N 10.67759 3.90502 5.97571	
N 11.70695 15.99567 12.39922	
N 3.08910 9.95247 14.65882	
N 6.35414 14.89764 9.15497	
N 13.81944 15.92695 8.90221	
N 11.21271 13.29468 7.25591	
N 16.40820 4.98968 5.89950	
N 15.45195 11.65609 10.25841	
N 5.56119 12.75304 3.27164	
N 1.64604 13.21801 8.87807	
N 5.61607 4.76538 0.68191	
N 12.65083 6.88869 14.42570	
N 7.48374 1.85473 16.47351	
N 9.24424 2.27395 3.23673	
N 14.23531 8.84885 1.62368	
N 9.56163 0.03352 10.63569	
N 14.51911 13.29017 14.25895	
N 14.57319 13.96494 16.35084	
N 1.93838 4.80027 1.38794	
N 2.51567 7.22267 0.57212	
N 1.14987 10.00978 0.16111	
N 5.67803 0.10577 1.78703	
N 7.56878 10.71914 11.99930	
N 16.16148 4.18381 2.72271	
N 5.26300 5.11033 3.74152	
N 9.27624 8.45699 10.07573	
N 11.62683 12.51773 11.48554	
N 1.06620 2.02906 2.00920	
N 6.97380 12.97505 11.47732	
N 0.74497 0.61330 15.85404	
N 13.30291 7.15383 3.37697	
N 9.47457 11.66832 4.46918	
N 8.33871 16.03042 0.89866	
N 7.36668 1.76685 11.84717	
N 2.36057 8.20330 3.68007	
N 8.84388 0.28931 13.44027	
N 1.88751 2.65658 5.47713	
N 1.65165 5.97876 6.35739	
N 1.67446 10.01263 9.33825	
N 8.82078 14.40255 15.51979	
N 6.32223 4.50384 11.42610	
N 2.94997 15.84731 14.60003	
N 13.57542 1.85233 8.38891	
N 8.17115 10.83625 6.41760	
N 5.60587 13.41301 7.47317	
N 3.61418 1.03027 3.59828	
N 10.77813 7.37936 6.87514	
N 9.29104 3.43791 13.88670	
N 8.35808 9.35765 14.48365	
N 10.53093 2.41549 16.19769	
N 5.54391 5.27390 6.34147	
N 6.26654 4.08044 10.33133	
N 3.82902 12.50221 15.82250	
N 6.43534 3.99824 13.61120	
N 13.04504 4.80949 7.27877	
N 15.03988 11.77162 12.49762	
N 10.99707 15.03803 0.38595	
N 14.85557 10.15355 15.13711	
N 8.16565 15.46338 7.66231	
N 11.42126 3.07114 12.33588	
N 2.84044 7.14931 16.07170	
N 13.66497 15.22444 8.03479	
N 12.21800 2.76436 11.69449	
N 4.64579 8.09590 2.96620	
N 0.51413 1.80806 7.75901	
N 14.97887 4.61819 13.72133	
N 13.00693 15.32282 5.43189	
N 0.84271 2.90577 13.33814	
N 0.57167 6.87932 11.25504	
N 8.24743 13.36404 5.87497	
N 4.96352 12.28244 10.96204	
N 9.68666 1.85549 6.24884	
N 5.14136 7.47344 15.52234	
N 5.35424 1.21295 10.17764	
N 8.59405 0.45977 1.50245	
N 11.25180 6.18017 2.71579	
N 5.15664 2.34440 5.79678	
N 0.45568 5.26589 15.10207	
N 10.06376 15.80042 4.49886	
N 15.50273 2.38149 6.40152	
N 2.30576 5.75205 2.57640	
N 0.61291 14.90799 10.61957	
N 14.02327 3.18496 2.88563	
N 12.52949 1.22128 14.27718	
N 6.98987 15.87113 15.26207	
N 0.90459 4.58604 8.05495	
N 7.19466 15.91080 12.02681	
N 0.31786 7.22429 3.69925	
N 10.26558 11.93268 15.51840	
N 4.15939 5.31544 14.40273	
N 6.87886 8.02132 12.61523	
N 5.93965 9.68837 4.73706	
N 8.35666 5.72209 3.46962	
N 2.42712 3.36364 10.29344	
N 13.27948 2.94229 6.24547	
N 15.81061 16.17370 15.38413	
N 1.85540 9.17203 3.82996	
N 15.43401 4.27664 10.48832	
N 2.51177 6.55231 10.31957	
N 10.07605 9.55399 12.55996	
N 11.30247 9.49722 1.90924	
N 10.60795 11.25252 8.59798	
N 13.20684 7.18353 8.62995	
N 4.36986 7.14176 2.25128	
N 10.26038 11.93556 3.65391	
N 11.93349 4.84927 16.41706	
N 5.87213 11.63127 3.03625	
N 10.51628 9.98453 11.52472	
N 1.41027 11.13849 13.79336	
N 13.88417 14.49994 10.39171	
N 15.95854 0.75275 10.38378	
N 6.42923 9.98105 9.60500	
N 0.27579 12.21725 7.14902	
N 15.54994 15.38523 2.20678	
N 13.28174 12.75218 8.70345	
N 7.74519 12.67601 13.67375	
N 3.04765 13.12252 1.47264	
N 0.18802 14.99250 7.74340	
N 12.18277 1.15026 10.69856	
N 9.33733 7.92943 4.34013	
N 7.78859 12.24632 8.22871	
N 2.84556 9.74226 11.36410	
N 3.58962 12.78388 5.35787	
N 3.90412 3.98678 12.25437	
N 15.98580 0.86109 3.82235	
N 5.28235 13.79812 0.32185	
N 12.65778 11.64600 1.45601	
N 4.29798 5.27484 8.73702	
N 6.15268 2.26472 3.06791	
N 12.61835 15.60775 12.92131	
N 3.21966 9.43393 15.61242	
N 8.87919 12.46212 1.89077	
N 11.05158 14.81861 9.23331	
N 10.71397 12.38991 6.86333	
N 15.38870 4.72253 5.45799	
N 16.38701 11.86677 9.72292	
N 11.40365 14.77202 2.63405	
N 2.95977 1.60043 7.79448	
N 2.27645 16.11080 0.42794	
N 13.08463 7.02361 15.45107	
N 4.84476 1.40255 13.16354	
N 8.70964 4.01924 1.34068	
N 15.25946 9.28952 2.24466	
N 8.85772 0.41402 9.83411	
N 12.55537 10.19149 15.92633	
N 13.64102 14.32048 0.27465	
N 3.11540 4.23965 0.95063	
N 10.27123 7.51382 12.49593	
N 0.28142 10.85410 16.48948	
N 5.15374 15.55195 1.82401	
N 8.49356 10.97637 11.25695	
N 0.16961 3.42859 3.48137	
N 14.71548 4.72161 0.50835	
N 9.41094 8.70939 8.98324	
N 11.98009 12.02067 12.59211	
N 10.28331 5.52092 10.14792	
N 7.92930 13.35940 11.19068	
N 1.32933 1.48692 15.40137	
N 14.71255 11.18686 4.34604	
N 11.51006 9.01171 4.12738	
N 6.94119 14.88675 2.91794	
N 8.41915 2.22701 11.16290	
N 3.52561 10.71959 6.50372	
N 9.88344 0.51541 13.45647	
N 1.33849 13.45327 16.29875	
N 2.10783 5.70537 5.27624	
N 2.56538 10.36932 8.79981	
N 9.45404 15.39342 15.33748	
N 6.45986 6.71485 9.30634	
N 3.76899 15.28056 14.05014	
N 3.83932 7.03471 7.48953	
N 5.13839 9.97302 13.20904	
N 4.81137 13.76075 8.14728	
N 11.23573 1.37256 1.50259	
N 11.50789 6.39037 6.41583	
N 9.35990 4.58870 14.31371	
N 9.47842 9.39797 14.95315	
N 12.47800 8.54718 12.24939	
N 4.99475 4.36304 6.35725	
N 5.08074 6.88942 11.21288	
N 1.92898 5.31168 12.63203	
N 6.91950 4.63681 14.91012	
N 7.84661 4.35706 5.55451	
N 14.14815 11.05245 12.25705	
N 11.78351 15.69716 16.15779	
N 15.01435 9.14239 15.55507	
N 9.10654 16.02460 8.15575	
N 6.69591 2.82915 8.16130	
N 14.63255 8.38877 12.32852	
N 11.76066 0.55340 7.46852	
N 9.20157 4.87715 12.18171	
N 4.60588 9.93190 1.66357	
N 16.22058 1.53292 8.55075	
N 0.16632 3.14721 16.16400	
N 13.36732 15.16108 4.30396	
N 0.25242 2.23857 12.62542	
N 16.25795 6.83657 10.49675	
N 5.12950 15.46666 4.71686	
N 5.07298 12.64542 9.88124	
N 8.76549 1.33418 5.52494	
N 5.41834 8.52132 15.23420	
N 4.30797 0.84434 10.43474	
N 12.19319 4.04666 2.72099	
N 10.20706 6.47987 2.18070	
N 4.92024 1.31705 5.38229	
N 16.30001 7.29115 0.61846	
N 10.70866 0.44380 4.47854	
N 15.34540 1.23118 6.15308	
N 4.33350 2.75361 16.49622	
N 3.36039 15.50485 11.52131	
N 14.07597 2.58160 3.81295	
N 15.04017 0.94894 1.44007	
N 10.13410 14.20743 12.27218	
N 16.35863 4.95146 8.22647	
N 5.91005 0.50410 7.19031	
N 15.89429 7.18283 2.95795	
N 6.05980 11.48667 15.98392	
N 12.56211 3.04240 0.01443	
N 2.62172 7.54588 12.91415	
N 7.39921 9.27522 2.72508	
N 9.04673 4.96453 3.97576	
N 2.48558 15.15897 5.87367	
N 13.01762 1.93514 5.67146	
N 15.27849 0.21438 14.59956	
N 0.41829 8.72420 5.88553	
N 12.64956 4.15371 14.15869	
N 5.12056 9.07144 7.96544	
N 11.52881 13.71927 14.87334	
N 10.25946 9.79687 2.36057	
N 10.93884 10.26130 8.93197	
N 13.73004 7.16986 9.70545	
N 3.49186 11.25498 3.73307	
N 1.16050 11.00375 3.76070	
N 14.56570 1.85162 12.60675	
N 16.24138 11.83150 2.22041	
N 10.13035 3.37808 8.73163	
N 0.70865 11.93315 13.99538	
N 12.75184 8.70613 6.19880	
N 14.91948 0.87430 10.67745	
N 5.46222 9.74071 10.43204	
N 0.85081 12.85913 6.47367	
N 14.48307 14.82816 2.35201	
N 13.32854 11.70211 8.40694	
N 8.11511 11.73760 14.21179	
N 3.49752 13.95799 2.06396	
N 1.06634 15.74744 7.50616	
N 11.79069 0.63031 9.81091	
N 7.82221 6.93269 6.59707	
N 8.36636 12.96229 8.89469	
N 3.14937 10.95993 11.35674	
N 2.53053 13.38682 12.71647	
N 0.41393 7.73870 8.27919	
N 0.19853 0.48411 4.57473	
N 6.16166 13.94549 16.09001	
N 11.64308 11.48955 1.07180	
N 3.73249 4.48329 8.19336	
N 6.51573 2.87059 3.97888	
N 13.78490 15.40439 13.02011	
N 0.74737 9.25386 12.52678	
N 8.29138 12.33090 0.93648	
N 10.79361 13.81073 9.54880	
N 8.30697 13.90763 5.00871	
N 14.23735 5.22583 5.08139	
N 16.12146 11.51111 7.86110	
N 11.82389 13.74472 2.57015	
N 4.03882 1.96254 7.79371	
N 3.39405 16.45887 0.34435	
N 14.03236 7.22825 16.27723	
N 4.96469 0.93463 14.20025	
N 8.99627 3.87255 0.26969	
N 16.46981 9.18573 2.06103	
N 1.41012 13.84575 3.91065	
N 12.09354 9.43796 15.09906	
N 2.22406 0.86947 11.90452	
N 0.63668 7.76997 14.33268	
N 9.64849 7.09581 13.46495	
N 15.74660 11.34192 16.42636	
N 3.30790 3.79806 3.75559	
N 9.10748 11.82459 10.74287	
N 2.91907 12.12083 15.25973	
N 14.14812 4.94367 1.46328	
N 6.36238 12.17730 5.63948	
N 11.95456 11.54613 13.62873	
N 10.95784 6.00827 9.40793	
N 8.67927 10.25159 7.24281	
N 2.43713 1.91430 15.14175	
N 15.10083 12.17137 4.46085	
N 11.04993 9.38384 5.16456	
N 7.99497 15.20027 3.12533	
N 9.16381 2.90642 10.65241	
N 3.45100 9.76970 5.78568	
N 10.54782 2.43750 15.18432	
N 0.78034 14.08708 15.52535	
N 3.74480 7.75803 5.47743	
N 3.66931 11.06515 9.19481	
N 7.94742 10.22584 0.14980	
N 7.51999 6.45929 9.53671	
N 5.15959 13.27102 13.88218	
N 2.95748 7.45507 7.97157	
N 5.19698 10.80574 14.02200	
N 4.75741 7.44763 5.43580	
N 12.37558 1.44956 1.44347	
N 12.38665 6.82666 5.45028	
N 9.75149 5.54041 14.95695	
N 9.87107 8.47968 15.72995	
N 12.04736 7.85300 11.42068	
N 15.03441 7.37287 6.20872	
N 4.68311 7.62355 10.46184	
N 0.81462 5.54977 12.60197	
N 7.07244 6.11584 14.64836	
N 8.33107 3.72937 6.32846	
N 13.13426 10.61669 11.45933	
N 12.81092 16.00821 15.75054	
N 5.15379 13.85267 12.94671	
N 13.40390 9.10444 7.19174	
N 7.64637 3.24357 8.51105	
N 14.52109 7.45163 12.93144	
N 11.29502 16.24972 6.86268	
N 8.44438 5.66181 11.98654	
N 3.47266 10.09698 1.12700	
N 3.20243 16.00096 9.06846	
N 0.25637 4.28253 15.50295	
N 3.58744 15.84005 8.02373	
N 13.04650 5.32500 11.90102	
N 15.43243 9.17142 9.71236	
N 5.22016 14.81491 5.57325	
N 6.45996 15.78004 12.80145	
N 7.96532 0.41056 5.47529	
N 6.54536 2.36693 0.25864	
N 11.01366 3.98494 4.92977	
N 11.29718 3.78366 2.02720	
N 9.58647 7.30783 1.76259	
N 13.79828 5.00077 8.10083	
N 16.39714 6.33291 1.24292	
N 11.46625 1.28149 4.34778	
N 15.01627 0.09184 6.53639	
N 4.03350 2.39755 1.17264	
N 4.50222 15.49858 11.54171	
N 13.18507 0.19486 3.28851	
N 14.14888 0.61899 0.88952	
N 9.21586 14.65605 12.46871	
N 1.51286 3.80474 9.91366	
N 6.37612 0.23048 8.20002	
N 14.88657 7.56635 7.32688	
N 6.88120 9.22066 5.02018	
N 13.78956 3.02176 0.15445	
N 3.60382 7.88653 13.52967	
N 8.21477 10.06852 2.61442	
N 6.84764 7.01391 1.39319	
N 2.39261 16.19771 5.51812	
N 13.07735 2.62873 9.10281	
N 14.34682 12.38354 14.95224	
N 16.39885 9.75905 5.75232	
N 13.81847 4.65639 14.12459	
N 6.01298 8.77748 7.40297	
N 12.39214 14.09335 14.43922	
N 12.01628 11.64039 5.36798	
N 11.73023 9.00014 9.21558	
N 6.22617 5.83417 3.64976	
N 3.08439 11.34503 2.78735	
N 1.09910 11.51203 4.77024	
N 11.63271 5.93239 0.09460	
N 16.16720 12.92011 1.98486	
N 11.01235 3.27398 8.07963	
