512
16.500000000 0.0 0.0 0.0  16.500000000  0.0 0.0 0.0 16.500000000
H 7.72499 16.21565 10.74084
H 0.35020 3.66483 13.56225
H 4.81627 10.75957 9.94559
H 5.98246 5.26297 7.39631
H 11.96411 10.42860 16.04945
H 2.35554 5.88693 2.11096
H 15.83507 11.65256 5.41579
H 13.77602 2.45720 10.45757
H 3.11707 16.42332 11.28728
H 1.91817 1.20696 5.27328
H 6.80851 1.94637 4.32662
H 11.56893 13.14465 16.16868
H 5.59622 0.77941 5.34861
H 2.48212 8.37198 15.28751
H 3.82220 13.77930 10.69688
H 5.06969 8.61394 15.86038
H 16.43538 14.76287 16.11769
H 11.52763 5.89675 11.73443
H 9.80587 9.08282 0.18480
H 14.17114 5.43741 4.93263
H 6.76910 0.14285 6.50348
H 14.66181 10.54298 11.04017
H 0.21715 6.56695 15.13489
H 2.77551 16.39001 4.84020
H 7.89360 9.20713 2.57817
H 12.33983 13.76714 1.38454
H 11.46829 2.82090 14.86037
H 16.01462 10.12942 5.78313
H 1.08460 0.91464 14.35727
H 7.40813 3.94046 9.92806
H 0.59077 4.66711 0.80352
H 4.22485 6.81117 7.80320
H 1.69370 3.09094 12.66230
H 5.45126 3.79778 1.36345
H 14.44455 10.44759 9.50269
H 2.70866 12.81098 10.92977
H 4.40577 4.15319 13.27418
H 0.46876 0.03770 1.28099
H 13.39849 11.13293 10.16838
H 12.46341 11.78017 11.78508
H 5.25156 2.28656 4.34945
H 9.97708 0.90757 14.54485
H 12.84877 14.36131 14.96122
H 2.86930 14.46087 15.65599
H 16.00699 3.95599 16.07418
H 7.04511 15.04993 11.26453
H 10.03365 2.94881 15.61309
H 0.28640 0.44348 2.59036
H 2.09189 5.90348 6.25193
H 15.51708 10.86330 4.26987
H 0.32747 1.99399 12.74681
H 0.78654 2.91948 0.50486
H 3.24763 5.63560 3.02663
H 0.08674 0.65459 15.91898
H 8.71583 7.97166 16.11543
H 3.94320 14.11386 7.35381
H 8.57676 4.98679 9.35929
H 10.15010 11.02338 15.86955
H 0.10023 6.22068 13.08334
H 2.36475 6.72451 8.52033
H 15.53011 0.63218 1.92362
H 6.32352 8.76118 14.90311
H 8.53503 3.33164 9.12035
H 2.00018 0.81167 12.09369
H 6.51300 9.43194 2.91732
H 1.93534 7.09157 14.41170
H 5.48540 12.13368 2.87270
H 1.62951 12.44185 13.14346
H 6.35233 0.04124 11.03201
H 9.60325 10.87578 1.01498
H 0.37083 13.44928 11.66401
H 8.61223 1.97847 14.41656
H 3.43690 15.12522 14.10655
H 16.06762 0.92652 14.07042
H 12.87360 11.57658 13.25141
H 15.54436 6.07184 4.35126
H 5.95281 15.79737 8.03080
H 7.06877 9.96552 15.55769
H 3.23441 2.76012 11.95076
H 2.90733 0.08755 6.34329
H 11.74113 5.04065 12.81075
H 7.12816 10.55805 1.81556
H 2.09341 8.91881 1.22353
H 12.06996 3.33806 10.85145
H 6.30902 6.25959 8.55331
H 12.64659 4.57065 11.04974
H 1.22640 15.70756 16.04527
H 14.03259 6.56689 3.72790
H 6.14237 9.23238 0.46943
H 2.26124 13.52584 12.70786
H 1.49179 2.23453 14.05805
H 6.59143 3.09180 2.72937
H 0.39268 13.11667 13.60967
H 5.82366 11.14443 9.03444
H 10.73283 5.04574 13.87276
H 7.46347 15.48741 6.94838
H 0.92854 7.84072 1.85684
H 11.01646 7.79345 5.31387
H 0.51547 15.22983 1.21507
H 6.77087 4.53358 1.89818
H 0.87007 10.65324 4.84959
H 1.69716 5.47495 14.56353
H 3.05401 4.10485 14.30588
H 10.83435 4.54422 10.83779
H 3.28817 8.04724 7.66164
H 11.48421 13.37943 14.53607
H 11.55601 8.79094 4.07256
H 3.14482 7.16923 5.78453
H 2.07613 7.28667 0.73112
H 3.33292 4.25671 1.60794
H 3.75044 7.31155 14.62433
H 5.32654 4.86396 8.80379
H 11.43988 9.41198 0.40719
H 11.27925 6.25085 10.45012
H 11.24712 14.72994 0.76112
H 2.93361 14.80059 6.16427
H 5.56722 10.91743 1.55354
H 12.80498 12.82781 15.18027
H 2.91872 15.19280 7.64604
H 4.33912 11.34917 2.57166
H 1.13235 8.14994 16.39588
H 1.78246 15.58047 15.06300
H 10.26757 6.03057 12.64374
H 8.27157 9.39016 0.68428
H 12.21147 7.47168 3.96143
H 13.62631 3.55993 11.71539
H 4.68859 2.83204 14.17674
H 2.26223 14.37114 11.00303
N 1.81219 2.00704 15.73254
N 13.37485 16.04496 11.47214
N 16.27626 5.61350 1.59262
N 12.01163 7.90078 10.27749
N 6.43820 8.32534 11.49907
N 3.56190 2.07661 1.80259
N 13.86630 10.70683 2.77428
N 13.85373 10.92251 14.53720
N 15.79137 15.57724 9.21984
N 15.46771 1.27589 11.80459
N 10.42459 2.73097 9.19530
N 5.25412 6.26638 0.65864
N 0.84320 2.75322 13.25897
N 13.73161 0.22572 13.99347
N 3.10987 12.85385 3.17260
N 5.27848 6.67597 12.90381
N 6.28936 0.92455 1.95328
N 0.04883 10.58990 1.49833
N 6.94647 12.91254 3.99166
N 7.05196 1.88246 16.23990
N 8.80221 5.00310 4.34353
N 1.98209 1.86267 0.34317
N 3.16254 0.91672 14.36645
N 0.18970 0.75826 14.82560
N 0.50389 14.39623 6.78369
N 12.77504 10.38892 8.05622
N 4.06608 3.97250 7.12989
N 2.02475 15.16381 9.75742
N 11.36281 12.90107 7.29688
N 8.04405 4.20297 9.15323
N 11.69315 7.98106 4.67503
N 11.56730 4.87369 2.91135
N 16.12276 5.76016 13.85055
N 5.85378 1.70985 4.95114
N 5.92441 14.14915 9.67890
N 8.88635 4.44623 6.88187
N 15.10423 8.43234 13.19514
N 9.19963 15.12458 5.71736
N 9.18497 2.77529 0.94542
N 15.23097 3.94953 5.20672
N 14.67207 5.99270 4.12430
N 9.02465 11.58142 4.38206
N 10.56132 11.27740 9.75403
N 14.08452 6.43999 7.81199
N 2.66609 5.39363 0.25897
N 0.79182 6.23944 7.37877
N 14.92678 12.65663 12.40603
N 0.10071 3.74611 0.29097
N 2.18207 4.52533 12.16549
N 5.44362 14.46969 15.15487
N 14.51068 11.27348 10.06167
N 12.09550 3.28105 1.19216
N 8.68170 0.24077 0.24195
N 6.59684 15.83364 7.15756
N 1.12264 10.71172 14.87538
N 7.45588 5.03693 13.60484
N 0.87079 15.00356 0.24708
N 3.96977 5.67151 10.70524
N 5.32897 11.66705 11.76543
N 4.65730 15.78205 12.36890
N 6.88221 3.66901 6.37816
N 8.40517 12.69207 10.51895
N 8.81570 0.93290 11.85249
N 11.30536 15.70139 7.56541
N 10.34808 11.85717 12.30512
N 7.15246 9.49055 2.00665
N 9.38218 11.57444 5.39962
N 7.66218 2.08964 3.43370
N 12.14901 11.90048 12.62379
N 7.21609 4.67376 0.09181
N 9.33081 8.50942 8.00185
N 6.74081 4.39163 5.58766
N 6.49264 11.71584 15.67714
N 2.91709 4.96940 2.20968
N 7.29701 0.15834 14.15258
N 0.64511 5.10066 5.29829
N 3.47525 12.71091 13.91701
N 14.66086 3.22756 14.86605
N 15.51821 13.89823 4.49266
N 12.98834 2.63553 13.33549
N 14.82727 2.89848 5.46150
N 16.11124 15.06732 6.64033
N 11.99023 2.99832 13.13070
N 1.88135 10.41223 3.70211
N 0.71912 6.88721 9.44102
N 7.05703 15.97635 11.40901
N 2.95644 6.31060 6.31722
N 15.36591 1.84516 16.48855
N 2.41789 10.93408 10.35409
N 4.70585 14.26459 4.75605
N 1.72830 4.14239 9.12733
N 7.26372 12.10768 3.38638
N 3.11180 8.70943 13.07571
N 4.79878 3.50096 10.29245
N 9.73426 0.38760 0.28612
N 15.25337 4.76089 10.68031
N 1.50059 2.39527 3.62668
N 10.04986 5.70662 15.63429
N 15.82993 0.23202 9.48840
N 4.18278 3.50681 6.14013
N 13.83610 9.22155 4.48413
N 2.59603 0.59167 5.42160
N 10.23955 1.04473 2.48710
N 4.17611 3.66739 14.24995
N 7.22447 2.06590 15.15887
N 1.85870 7.19347 12.27182
N 13.32092 0.47057 3.62395
N 11.81754 1.34830 6.06574
N 11.08452 5.95889 13.28469
N 6.04258 0.77260 3.02145
N 12.94067 15.93602 13.77722
N 3.87495 10.85278 4.05360
N 6.72046 1.95155 12.60124
N 0.11540 9.95003 12.19231
N 7.21333 13.23887 12.92471
N 14.35157 15.28164 0.20254
N 1.32337 9.79709 15.44159
N 16.38500 5.46072 2.68106
N 4.73574 10.87199 8.96315
N 8.88053 11.31776 15.13941
N 2.39163 12.60481 8.13825
N 8.90610 8.77785 5.60111
N 8.70513 1.99045 4.17193
N 2.34026 10.77965 1.44158
N 12.40330 2.46794 1.81049
N 12.77016 9.58047 11.81502
N 10.52985 13.55298 7.36636
N 7.90608 10.81617 15.20060
N 14.88386 9.52158 0.08819
N 13.32723 15.57664 10.51778
N 11.36721 1.30976 11.45030
N 13.41291 4.16095 9.05048
N 2.37696 9.00248 6.49790
N 3.83766 1.31696 2.58898
N 14.68147 0.75201 12.37266
N 12.20762 7.57821 15.41725
N 12.54423 7.84698 7.93803
N 3.81441 0.38042 9.31564
N 6.75309 1.18587 9.04815
N 5.34576 6.04634 16.10407
N 13.69933 12.05402 6.08110
N 7.12600 6.64528 10.33172
N 2.69022 13.91590 3.00443
N 4.56027 5.99342 13.41241
N 13.16551 14.96639 6.01926
N 6.49049 10.45479 5.88261
N 10.40361 10.91283 2.49614
N 14.61307 6.94118 15.21870
N 5.24041 3.02739 0.23380
N 9.27936 14.60716 14.31848
N 4.05963 0.48812 14.63036
N 6.93947 13.36040 7.35727
N 12.38525 13.61278 14.33546
N 13.14181 10.08609 9.09378
N 1.06752 8.12630 4.82070
N 1.44507 14.74585 8.95352
N 10.92491 14.93114 11.96749
N 0.51148 13.48537 9.45159
N 3.57933 10.55479 15.73117
N 11.91243 4.55733 6.33048
N 7.19360 9.50381 9.49354
N 12.65325 8.53588 2.40148
N 5.63530 15.17424 9.55329
N 9.62660 3.69134 6.91399
N 13.20018 14.16025 2.57028
N 8.38485 14.58804 5.16889
N 8.20011 2.36661 1.32391
N 9.63693 7.47909 11.25049
N 1.13775 5.72499 4.59029
N 2.73936 11.96494 13.89157
N 10.77041 10.48489 10.42133
N 14.82750 5.84097 7.12208
N 5.39120 9.45233 13.86207
N 1.13860 5.17960 7.53878
N 12.01094 1.03590 16.01663
N 15.19895 8.25192 10.12207
N 1.69979 5.18656 11.34748
N 4.75387 13.60790 15.38656
N 0.65644 13.19175 2.86585
N 9.82496 1.98475 14.17829
N 14.79102 13.48598 7.89324
N 15.64577 3.47788 8.08334
N 4.55893 5.01695 4.72648
N 6.52193 4.64374 13.08574
N 7.51541 10.32660 12.44661
N 4.52378 6.41026 10.00220
N 5.42268 12.71881 11.49970
N 4.97535 14.73135 12.61538
N 4.64204 12.62023 6.78632
N 7.48309 12.17968 10.09463
N 16.31285 11.62774 8.82744
N 2.22773 12.05782 5.66841
N 9.89356 12.84868 12.56832
N 7.37912 14.13638 0.12916
N 10.49175 11.10654 0.22167
N 12.89544 1.52656 8.83630
N 7.26281 7.24952 6.87497
N 12.80368 5.16429 15.44611
N 10.25406 8.91195 8.65977
N 0.71378 2.73496 10.66638
N 11.07599 15.88465 15.31313
N 10.22343 5.96419 8.55872
N 5.69456 6.74826 4.11300
N 16.07803 5.28168 11.19269
N 11.09345 13.97279 3.34080
N 14.95498 2.97389 13.82606
N 16.00949 14.91353 4.44903
N 4.03454 15.70914 0.67543
N 15.83817 12.13966 15.52645
N 10.37416 9.69353 13.69686
N 8.06143 3.33547 11.54542
N 3.58135 8.83572 1.62239
N 0.67396 7.93764 9.25358
N 8.11000 6.41830 1.20418
N 16.11168 8.23533 2.58572
N 14.41367 2.48557 0.04137
N 2.07795 11.47168 11.19045
N 8.27928 7.41046 14.06108
N 2.51671 3.45860 8.81553
N 9.15758 0.83998 6.56915
N 2.96875 9.71402 12.58995
N 5.93460 3.26560 10.55696
N 13.47393 5.78398 1.42455
N 13.78537 6.03783 13.15793
N 1.52862 3.19743 2.77830
N 2.79582 7.50758 2.81816
N 14.00192 1.00016 6.69454
N 8.54739 14.77340 8.94003
N 5.48847 13.62960 1.35762
N 15.66963 8.47026 7.86839
N 10.49458 16.47248 2.37001
N 13.85087 11.78591 0.75517
N 8.99423 14.07580 1.89669
N 1.42602 7.91549 11.57345
N 1.42800 15.62279 3.99139
N 11.46012 2.29863 6.48748
N 16.44339 11.15674 2.52779
N 1.70232 2.85062 6.91457
N 11.20423 16.12741 5.07338
N 11.11729 10.07885 5.81674
N 5.55317 2.14984 12.56812
N 1.28807 0.13961 7.52327
N 7.41463 13.59279 13.99045
N 13.98252 16.18583 0.70905
N 2.12369 10.58509 2.49383
N 3.33524 1.86818 11.54139
N 5.17084 8.36426 6.84355
N 15.57005 3.31172 2.92073
N 3.33467 12.60853 8.91952
N 8.61410 8.91823 4.54029
N 9.73691 1.99201 4.71189
N 4.10586 1.47036 6.91797
N 2.84667 8.18028 9.65048
N 10.29856 2.03809 8.42113
N 0.59155 0.75836 5.30452
N 8.23848 16.14794 3.38505
N 14.04641 9.23088 0.71194
N 2.41622 12.38984 16.04552
N 11.67840 0.83765 10.49295
N 12.52848 4.37712 8.42962
N 16.31802 10.84027 5.02049
N 3.06089 6.93230 7.67658
N 15.56875 12.28561 11.58380
N 11.78062 8.56489 15.69842
N 12.39332 7.47796 6.80942
N 3.37085 1.03247 8.54136
N 7.80633 1.36376 9.19140
N 5.95168 3.93949 2.26709
N 13.62488 11.71541 5.10592
N 8.16366 6.33099 10.63341
N 2.98704 13.69065 11.29187
N 6.15035 8.75844 16.02891
N 13.38168 14.82940 4.93000
N 7.17072 10.30702 6.83432
N 10.44350 10.65769 3.57138
N 15.42433 7.57166 15.66045
N 4.66895 2.19748 16.27561
N 9.66755 13.84330 15.00137
N 5.70345 8.65297 10.70593
N 6.90220 12.33037 7.69488
N 0.49076 16.00654 12.61960
N 5.16672 15.06649 4.09237
N 0.33838 7.87367 5.68665
N 2.39770 9.96789 7.05084
N 9.86838 14.98197 11.72626
N 16.07546 13.66995 9.96609
N 4.40044 10.34084 16.49218
N 12.38091 5.47377 5.87018
N 7.97842 10.38447 9.43054
N 11.63145 8.83309 2.18515
N 5.11285 11.69547 2.11303
N 16.48933 0.61891 1.70659
N 13.96176 13.95548 1.85111
N 5.61762 5.71296 8.09237
N 1.14220 13.22057 12.84192
N 9.29572 8.46148 10.99791
N 2.76238 7.31056 15.16731
N 1.47122 8.06503 0.96297
N 1.34227 15.45924 12.16693
N 6.92118 12.32524 0.03512
N 4.98968 10.52553 13.77449
N 11.91178 13.86907 0.50433
N 12.93300 1.34914 15.33097
N 14.38946 7.81549 10.77022
N 11.52187 16.22817 8.59893
N 11.61848 5.26624 10.93668
N 16.31961 13.26527 2.18600
N 10.43898 3.07984 14.70876
N 14.14646 14.18269 8.38431
N 15.81310 2.43380 8.60171
N 4.68048 4.40525 3.82356
N 8.10949 4.48467 16.03023
N 8.63383 10.29335 12.49315
N 9.75575 7.33620 3.23720
N 3.50150 15.02104 6.88303
N 8.93487 8.69755 0.11673
N 4.37257 11.65085 6.30046
N 12.80825 12.53961 9.88609
N 16.22676 11.31090 7.81961
N 1.53568 12.77118 5.21962
N 10.40810 7.28087 2.35248
N 7.82834 15.04043 0.42413
N 11.90133 10.39230 0.55436
N 13.80915 1.46737 9.44446
N 8.20755 6.63698 6.97550
N 12.40172 4.16349 14.99027
N 12.78723 3.60872 3.87682
N 1.34402 1.89813 10.15472
N 10.97674 16.20118 14.24946
N 10.59054 6.44786 7.62849
N 5.69587 7.82492 3.94824
N 13.14646 3.12075 11.00903
N 11.46523 13.50509 4.29248
N 12.34740 13.40243 10.46237
N 2.15333 13.12692 0.31556
N 3.38288 0.05704 0.38862
N 16.32983 12.97021 15.96805
N 10.64851 8.64253 13.54631
N 9.10716 3.84648 11.90307
N 4.64817 8.45931 1.51069
N 15.03512 14.85639 14.20629
N 7.93297 7.02662 2.13939
N 15.11311 14.97318 13.07251
N 10.47473 5.39746 0.11004
N 2.65295 14.87314 14.79632
N 8.02569 7.47437 12.96614
N 13.75546 1.45300 3.82405
N 8.18793 1.36215 6.85655
N 0.71283 5.59895 14.88173
N 9.90883 4.79510 4.52220
N 12.83053 6.64737 1.30245
N 14.42267 5.14331 12.95890
N 7.41153 15.72242 13.47913
N 3.44628 7.47249 3.70526
N 14.90449 0.47834 7.14532
N 9.19902 15.58613 9.34361
N 5.78206 14.28197 2.17138
N 15.40875 9.28391 7.17561
N 14.96727 8.36582 2.25678
N 13.80443 12.64810 16.43833
N 8.86420 12.96408 1.57375
N 16.41862 9.45585 11.23729
N 1.57555 16.07889 2.99961
N 11.82375 3.18795 4.29921
N 4.57666 9.99571 4.09088
N 1.79713 2.81771 5.82795
N 11.71131 0.27686 4.16150
N 12.18806 9.86472 6.21604
N 13.12403 10.24724 14.96069
N 0.47253 0.98658 7.72134
N 9.10296 1.10355 10.85991
N 14.70316 9.50119 13.01591
N 14.47438 8.38551 4.65079
N 2.69751 0.84135 11.42345
N 5.31543 8.84602 7.76549
N 14.65862 3.38332 2.46045
N 12.87907 11.36872 2.92772
N 10.90135 4.12794 2.32492
N 2.69932 4.38463 16.23405
N 5.14335 2.00394 7.06701
N 3.49186 9.02017 9.91114
N 12.42106 8.67988 11.17895
N 15.98604 0.86655 5.01730
N 7.20831 15.67680 3.55323
