200
11.68 0.0 0.0 0.0 11.68 0.0 0.0 0.0 11.68
C 8.11446 5.62183 8.91754
C 3.20385 10.77472 8.67897
C 5.68858 8.21958 4.20694
C 1.80168 9.32037 11.45217
C 7.38126 10.53775 11.20178
C 0.56079 3.61889 1.28093
C 9.69087 11.66119 10.76694
C 0.14600 2.22178 4.61592
C 10.34813 1.37618 10.38737
C 6.11235 1.13157 0.66006
C 3.46590 10.19867 6.26363
C 9.88997 1.32884 2.47801
C 0.50808 9.12211 5.07334
C 4.44867 4.48897 3.99262
C 8.77442 8.71424 9.96140
C 0.59464 7.78749 8.23741
C 10.12572 11.56214 5.60450
C 3.70773 3.27941 5.70757
C 10.01996 0.78862 8.78937
C 10.36314 9.54825 0.89000
C 8.00730 4.05744 8.88165
C 3.80257 8.46607 6.29994
C 8.28548 4.44213 6.33313
C 10.63225 6.75563 4.44589
C 6.62738 3.45809 3.63069
C 11.11028 9.47308 9.99469
C 7.98434 3.96810 0.35572
C 2.99958 1.86405 7.39189
C 7.12165 4.00030 1.51547
C 8.93158 5.56489 0.10606
C 5.29026 4.23281 10.24699
C 3.49099 0.78708 2.51335
C 8.51049 1.50166 3.04811
C 1.96337 0.66272 9.87204
C 7.29733 8.15385 3.84182
C 6.02011 11.54028 9.84709
C 5.80660 0.03524 2.58306
C 4.05010 10.79803 7.60410
C 0.97471 7.87743 6.77119
C 5.26727 3.42871 8.88307
C 8.44591 5.44762 5.62587
C 1.83224 10.13063 8.35264
C 7.54639 9.56615 3.31404
C 9.80210 8.08205 6.24671
C 9.00422 2.88693 8.79060
C 3.40715 6.86482 3.96578
C 3.20286 7.91328 1.46958
C 7.48003 6.21824 4.90640
C 6.67081 3.15734 2.26477
C 5.53022 2.06915 9.23385
C 6.38795 1.17268 10.17840
C 6.40627 4.25548 8.62478
C 10.68277 4.95837 9.53944
C 8.16332 3.60130 3.97529
C 1.05104 10.14705 10.65820
C 7.06939 0.69868 6.29058
C 0.05169 5.97969 11.34998
C 10.85342 2.22759 11.38561
C 1.02954 6.24468 6.31499
C 0.97051 2.17719 1.16186
C 3.85224 0.81514 7.58699
C 2.13516 5.28037 5.46289
C 5.96300 9.69258 8.86033
C 10.87371 3.49121 1.96117
C 9.89152 3.36654 6.52716
C 1.08557 5.84142 0.66429
C 10.54952 7.01881 3.19191
C 4.18965 3.21172 4.42996
C 9.73330 11.21112 0.72380
C 3.34358 0.02410 1.23813
C 9.41285 7.23552 1.85640
C 6.72019 5.59874 3.80258
C 5.13769 0.08279 0.91707
C 8.11076 6.67156 10.97607
C 8.05574 7.67398 7.28540
C 3.94459 7.67439 7.52162
C 3.47857 2.56709 2.70485
C 10.82220 5.08150 6.13162
C 6.76590 10.57748 3.59190
C 5.48393 10.40825 7.80860
C 7.68900 3.06591 11.07966
C 0.92012 5.76134 2.03830
C 8.62898 9.07145 1.49386
C 8.34345 1.39031 4.48918
C 0.20882 0.86986 0.75847
C 7.41825 1.74133 11.07288
C 0.01811 9.27403 1.95414
C 4.31604 5.52433 9.04797
C 11.56216 11.47038 7.17896
C 0.61584 4.48878 7.54333
C 6.61056 6.90766 10.15702
C 1.63325 3.76303 6.12036
C 0.28825 4.73909 10.32395
C 1.68478 0.06259 0.54155
C 5.37953 0.97576 8.25168
C 3.09099 1.62281 10.04467
C 7.59441 1.96443 2.01279
C 7.68850 1.92902 6.97208
C 1.74583 2.23589 8.66387
C 7.73597 9.62689 10.25926
C 9.86933 4.49241 2.06511
C 0.52975 10.54459 8.06833
C 5.58724 5.33274 4.44415
C 4.26221 11.27728 10.59372
C 2.29877 5.52343 0.56107
C 2.96653 8.50738 0.14183
C 7.19206 0.74607 4.94370
C 3.67160 10.48869 9.79644
C 7.49071 6.97769 8.71922
C 2.05655 11.18473 4.15626
C 5.64654 2.49261 4.24373
C 8.15890 6.39808 1.47900
C 10.17596 3.45357 9.63364
C 8.90364 2.08801 10.04225
C 1.47569 11.39358 10.89281
C 2.80307 5.16193 10.81587
C 9.35945 10.46262 5.89285
C 9.83415 1.92059 8.05721
C 10.45793 0.52592 1.49202
C 2.66239 9.65991 2.51804
C 11.33383 6.12042 5.47615
C 2.97529 5.11548 1.92848
C 11.54750 6.35488 2.41681
C 0.47792 9.48620 3.40054
C 4.75773 9.32052 9.68880
C 6.88356 10.97547 7.22594
C 5.18447 11.50648 4.33120
C 2.44666 1.32826 5.49594
C 2.71251 0.91009 4.35823
C 7.59526 1.10206 0.72473
C 3.25880 5.33766 4.30187
C 5.63978 5.59580 1.99430
C 7.03629 5.88468 2.33898
C 1.33233 8.75538 2.51005
C 10.34966 7.37729 8.93904
C 1.55602 3.18807 0.32253
C 4.08993 3.51392 1.19045
C 10.43538 11.30261 8.25012
C 8.88269 4.53631 3.48224
C 4.93978 7.50836 5.18315
C 2.44946 10.14354 0.87559
C 4.21637 3.96766 8.13308
C 1.79168 7.30337 9.38873
C 2.65588 8.47258 4.89908
C 11.49910 3.35812 10.85395
C 2.50651 2.57660 6.35322
C 9.35860 8.39872 4.97708
C 9.43523 7.65841 7.45194
C 4.50656 1.97051 10.21502
C 0.49494 3.50869 4.99663
C 4.40100 5.45419 10.48080
C 8.27336 7.55317 4.53806
C 10.02594 8.35917 10.13492
C 5.44981 9.16669 0.48924
C 7.64412 10.68972 5.95654
C 9.77817 6.19241 9.31514
C 4.19765 8.28211 10.53356
C 2.68004 6.54489 2.52271
C 5.18789 5.43107 6.83474
C 7.73699 3.20450 6.12728
C 9.21857 5.79888 4.37906
C 4.96333 9.07759 3.77297
C 5.79028 6.96821 0.82811
C 3.06382 3.47915 8.63167
C 7.24511 10.56515 8.86030
C 11.24953 8.76690 6.15229
C 7.26972 7.30056 0.35522
C 5.37182 6.42577 5.69431
C 1.66797 4.91124 9.91372
C 2.36831 1.49538 2.75940
C 6.72334 3.62224 7.30679
C 1.02241 0.68769 4.83656
C 5.96649 6.65496 8.82545
C 10.51467 2.29828 4.59933
C 10.27652 10.46732 9.29709
C 1.40401 5.73250 7.35351
C 0.51640 2.94678 7.85709
C 5.74180 1.06656 4.73829
C 4.79130 6.44252 8.02161
C 7.44295 9.51137 1.83960
C 4.58564 4.11455 6.39950
C 9.70886 8.40268 0.85452
C 4.77102 8.01527 1.04898
C 10.56267 3.81928 5.35170
C 11.09848 4.08514 7.58672
C 1.73950 8.42071 5.59207
C 2.01791 4.62376 8.73933
C 8.26080 11.40693 11.64167
C 3.41275 10.73514 4.99548
C 5.05295 4.38024 1.53082
C 11.53662 11.64860 5.73879
C 2.26179 2.82931 10.16594
C 10.53973 5.83227 0.59745
C 5.35282 6.82227 11.09320
C 5.51219 10.48572 3.51024
C 5.11046 3.80458 11.50194
C 9.83635 1.34103 5.28471
C 10.15380 1.93772 6.66265
C 3.62646 9.22094 3.85087
C 6.51923 10.07755 0.64790
