200
11.68 0.0 0.0 0.0 11.68 0.0 0.0 0.0 11.68
C 7.47690 4.65697 10.70304
C 0.82992 11.16363 6.83842
C 5.61707 7.45424 4.42836
C 4.21938 6.89803 10.21036
C 11.11193 9.81057 9.91595
C 9.72731 5.97178 0.24647
C 0.12477 6.42678 0.13491
C 6.47702 1.84433 2.70256
C 0.67288 2.20577 10.76434
C 7.42248 10.66937 1.68651
C 6.18487 10.35447 8.19438
C 11.54533 11.22643 0.38706
C 1.20564 7.70136 5.53189
C 0.95151 3.46931 4.58592
C 8.93545 6.70155 9.20662
C 2.92738 4.10492 10.71508
C 0.86787 2.04709 6.79175
C 2.83835 2.60944 4.07030
C 8.91189 0.98115 8.11057
C 9.61313 0.70790 5.43344
C 8.60542 2.27455 7.06883
C 5.60633 6.80505 5.92422
C 8.93246 9.82981 3.41470
C 10.41426 5.76147 8.82677
C 2.07249 11.15682 0.15705
C 1.06210 7.58009 8.84060
C 11.42263 3.39999 1.81653
C 10.54819 0.69226 0.04109
C 4.39249 7.64859 4.04246
C 8.28304 6.52415 0.60331
C 6.06075 5.41129 9.54875
C 3.34241 3.22141 1.33599
C 0.59205 10.52185 1.67391
C 2.19744 8.74642 0.31536
C 6.44690 9.84622 1.37628
C 9.72121 9.77827 9.69401
C 3.84598 1.48592 0.31668
C 2.88745 0.46385 8.58959
C 4.31554 6.57609 6.44778
C 3.31631 2.60159 7.98873
C 5.84938 5.10149 1.46136
C 2.58547 6.81454 8.05210
C 7.40544 11.41998 2.96488
C 11.07896 9.50571 8.50380
C 6.27035 1.21725 8.46070
C 11.62318 7.36309 1.36984
C 4.27087 8.81140 2.88734
C 11.37101 7.79505 7.92108
C 4.79415 3.14696 2.21844
C 5.31052 11.34147 7.98695
C 5.13002 0.87467 8.52188
C 8.27571 4.26593 8.30829
C 0.50283 4.02064 7.09425
C 8.08905 4.81748 2.49626
C 1.53834 6.21740 3.41661
C 6.48070 10.88111 3.99855
C 11.36362 4.37574 11.13204
C 10.12300 3.11301 0.64647
C 2.25842 8.57716 6.05271
C 1.52112 0.27006 8.50378
C 5.08489 2.81214 5.25946
C 8.48117 2.40767 3.59127
C 3.36469 8.95517 9.91236
C 7.79630 4.87019 6.18023
C 8.11045 5.36869 7.30018
C 8.80094 4.82766 11.35754
C 9.83720 10.75275 3.57165
C 10.09265 3.33072 2.06823
C 8.32880 1.70467 4.76897
C 4.33750 11.24287 1.82741
C 11.09215 9.40155 2.46449
C 7.52773 7.55540 0.06825
C 7.53447 10.75254 10.64262
C 7.61295 10.54401 7.51233
C 0.48301 5.40402 7.38411
C 3.10854 5.88750 5.91294
C 0.43002 2.77868 2.93999
C 9.74080 3.25751 6.79647
C 6.84030 0.60596 2.33352
C 7.05114 9.37709 6.36443
C 6.72520 4.28114 9.39633
C 0.06426 8.80317 3.61113
C 9.75193 9.45985 0.86582
C 8.11818 2.84613 5.69564
C 10.23686 1.66933 3.52782
C 7.56970 0.92258 8.67793
C 10.21914 11.00699 4.94869
C 3.42614 4.92149 9.79208
C 1.97035 6.55565 5.69395
C 11.51344 2.88584 7.22382
C 5.80876 7.75606 8.89331
C 2.55934 4.57392 6.87533
C 10.89342 3.42572 8.76594
C 2.55910 9.68844 5.28557
C 3.60711 1.38712 8.21308
C 5.73779 0.28938 10.54865
C 9.26855 0.38050 0.18476
C 8.03293 8.18660 6.59464
C 0.29847 0.71453 8.20482
C 11.21201 1.56919 10.33244
C 8.63116 7.84000 3.03260
C 0.24163 9.97633 6.91128
C 0.80968 3.92255 1.29892
C 4.98148 9.97661 2.43457
C 8.78964 3.43080 0.47722
C 2.14190 7.62012 3.22341
C 9.45697 3.69994 5.62076
C 4.67895 10.96210 10.75194
C 7.37370 3.09586 8.40469
C 3.39510 10.39604 6.23092
C 7.15951 2.90762 3.27739
C 7.00972 4.94094 1.69849
C 7.48873 0.43394 10.10855
C 10.32157 1.49514 9.30003
C 2.89360 6.79657 1.62503
C 5.94169 6.32938 8.42037
C 1.80560 3.82786 2.04246
C 8.02738 0.41534 5.14348
C 0.45717 11.55698 3.03142
C 2.62285 9.11069 2.74999
C 0.58146 5.03936 0.14479
C 4.07901 6.97008 1.42157
C 9.10373 6.64731 3.30577
C 1.08423 10.91249 4.16649
C 7.29515 7.78508 8.88641
C 6.42210 9.94869 5.06089
C 3.42722 1.35599 3.94998
C 5.93471 3.54751 6.09403
C 5.13815 1.51666 5.79757
C 7.93009 11.11072 0.43389
C 0.87593 5.76522 4.61885
C 5.03711 3.57077 3.35847
C 9.03140 9.10585 2.02802
C 1.88380 10.10235 3.71982
C 9.54145 3.87378 8.40129
C 11.58777 1.61482 3.77372
C 1.29963 0.54686 0.17231
C 2.09969 9.28314 10.81524
C 8.61065 8.22512 8.05442
C 6.50146 6.45052 2.57735
C 1.66339 3.36119 3.29171
C 3.60416 3.65198 7.35605
C 5.20727 9.54627 5.70636
C 2.80286 8.04600 7.36966
C 7.75716 2.63870 11.41971
C 1.65703 5.78218 7.82451
C 6.45856 0.00479 5.28020
C 9.99803 8.19175 4.78789
C 6.25173 2.69250 11.64059
C 9.31882 3.77036 3.24125
C 4.37581 5.85706 9.40826
C 8.15828 8.78466 4.04625
C 0.78947 7.27944 2.49461
C 5.69992 8.47885 10.10640
C 5.74661 0.45161 6.24227
C 10.16596 5.12933 10.29482
C 2.68292 7.57324 10.31978
C 1.59791 4.37832 10.20888
C 6.87193 6.49840 4.11710
C 8.79290 8.51246 5.31328
C 10.69492 6.38178 7.41109
C 5.20308 7.00989 0.54960
C 2.23357 5.48054 2.29838
C 3.50018 11.30659 0.73125
C 8.98245 9.45259 8.57531
C 11.26439 8.70792 5.07823
C 8.17951 7.37513 10.06824
C 7.43856 5.09014 4.75758
C 0.48949 3.42085 10.11758
C 1.97626 3.61185 5.58484
C 5.64681 4.37649 7.20072
C 4.03790 3.35387 4.46491
C 5.18473 8.87829 8.08954
C 10.61621 5.72376 4.80836
C 0.72045 7.71668 10.17837
C 4.16709 9.89966 10.32141
C 0.25831 11.45225 5.32962
C 6.31735 4.14818 4.16422
C 5.43261 5.97092 7.14853
C 6.82812 8.78035 0.67568
C 5.26441 6.11882 2.41217
C 10.59024 7.13321 11.33053
C 4.96077 7.63514 10.99761
C 10.00366 6.73406 4.17269
C 2.07803 4.99060 9.17256
C 3.59936 8.84881 7.89384
C 1.64151 1.84007 11.56986
C 10.64972 8.71687 1.34881
C 4.75623 10.79786 6.13309
C 3.81397 3.39021 11.65475
C 1.10101 0.58553 6.28395
C 5.38492 1.58205 11.50102
C 8.39848 1.01121 10.85152
C 8.62949 6.10298 2.06543
C 4.15611 0.44353 3.41203
C 5.54617 3.54749 0.97202
C 9.77499 4.58602 4.52628
C 9.04698 0.74137 6.65283
C 5.69950 8.82555 6.75730
C 6.46753 9.56231 10.31763
